McPAT (version 1.0 of Aug, 2013) is computing the target processor...
 

McPAT (version 1.0 of Aug, 2013) results  (current print level is 5)
*****************************************************************************************
  Technology 45 nm
  Using Long Channel Devices When Appropriate
  Interconnect metal projection= aggressive interconnect technology projection
  Core clock Rate(MHz) 2660

*****************************************************************************************
Processor: 
  Area = 370.995 mm^2
  Peak Power = 141.004 W
  Total Leakage = 63.8093 W
  Peak Dynamic = 77.1944 W
  Subthreshold Leakage = 60.9018 W
  Subthreshold Leakage with power gating = 26.6652 W
  Gate Leakage = 2.90748 W
  Runtime Dynamic = 16.485 W

  Total Cores: 8 cores 
  Device Type= ITRS high performance device type
    Area = 243.56 mm^2
    Peak Dynamic = 77.1929 W
    Subthreshold Leakage = 47.1988 W
    Subthreshold Leakage with power gating = 19.2077 W
    Gate Leakage = 2.80094 W
    Runtime Dynamic = 16.4847 W

  Total L3s: 
  Device Type= ITRS high performance device type
    Area = 123.815 mm^2
    Peak Dynamic = 0.00020693 W
    Subthreshold Leakage = 13.6017 W
    Subthreshold Leakage with power gating = 6.64728 W
    Gate Leakage = 0.0968273 W
    Runtime Dynamic = 0.000172609 W

  Total NoCs (Network/Bus): 
  Device Type= ITRS high performance device type
    Area = 3.61971 mm^2
    Peak Dynamic = 0.00123779 W
    Subthreshold Leakage = 0.101262 W
    Subthreshold Leakage with power gating = 0.0379732 W
    Gate Leakage = 0.00971065 W
    Runtime Dynamic = 0.000135258 W

*****************************************************************************************
Core:
      Area = 30.445 mm^2
      Peak Dynamic = 21.5107 W
      Subthreshold Leakage = 5.89985 W
      Subthreshold Leakage with power gating = 2.40096 W
      Gate Leakage = 0.350117 W
      Runtime Dynamic = 12.2273 W

      Instruction Fetch Unit:
        Area = 4.59444 mm^2
        Peak Dynamic = 4.9755 W
        Subthreshold Leakage = 0.751292 W
        Subthreshold Leakage with power gating = 0.305204 W
        Gate Leakage = 0.0470923 W
        Runtime Dynamic = 1.68838 W

          Instruction Cache:
            Area = 1.88071 mm^2
            Peak Dynamic = 2.43999 W
            Subthreshold Leakage = 0.185726 W
            Subthreshold Leakage with power gating = 0.0770478 W
            Gate Leakage = 0.0179754 W
            Runtime Dynamic = 0.848532 W

          Branch Target Buffer:
            Area = 0.64954 mm^2
            Peak Dynamic = 0.177867 W
            Subthreshold Leakage = 0.0811682 W
            Subthreshold Leakage with power gating = 0.0435357 W
            Gate Leakage = 0.00272758 W
            Runtime Dynamic = 0.0598539 W

          Branch Predictor:
            Area = 0.138516 mm^2
            Peak Dynamic = 0.0597838 W
            Subthreshold Leakage = 0.0199703 W
            Subthreshold Leakage with power gating = 0.0103282 W
            Gate Leakage = 0.000757657 W
            Runtime Dynamic = 0.0201224 W

              Global Predictor:
                Area = 0.0435221 mm^2
                Peak Dynamic = 0.0168831 W
                Subthreshold Leakage = 0.00759719 W
                Subthreshold Leakage with power gating = 0.0039236 W
                Gate Leakage = 0.000278362 W
                Runtime Dynamic = 0.00612067 W

              Local Predictor:
              L1_Local Predictor:
                Area = 0.0257064 mm^2
                Peak Dynamic = 0.0142575 W
                Subthreshold Leakage = 0.00384344 W
                Subthreshold Leakage with power gating = 0.00198631 W
                Gate Leakage = 0.000154548 W
                Runtime Dynamic = 0.00529837 W

              L2_Local Predictor:
                Area = 0.0151917 mm^2
                Peak Dynamic = 0.00527447 W
                Subthreshold Leakage = 0.00181347 W
                Subthreshold Leakage with power gating = 0.000957045 W
                Gate Leakage = 8.00196e-05 W
                Runtime Dynamic = 0.00203318 W

              Chooser:
                Area = 0.0435221 mm^2
                Peak Dynamic = 0.0168831 W
                Subthreshold Leakage = 0.00759719 W
                Subthreshold Leakage with power gating = 0.0039236 W
                Gate Leakage = 0.000278362 W
                Runtime Dynamic = 0.00612067 W

              RAS:
                Area = 0.0105732 mm^2
                Peak Dynamic = 0.0117602 W
                Subthreshold Leakage = 0.000932505 W
                Subthreshold Leakage with power gating = 0.000494733 W
                Gate Leakage = 4.63858e-05 W
                Runtime Dynamic = 0.00258273 W

          Instruction Buffer:
            Area = 0.0226323 mm^2
            Peak Dynamic = 0.606827 W
            Subthreshold Leakage = 0.00151885 W
            Subthreshold Leakage with power gating = 0.000701682 W
            Gate Leakage = 6.83558e-05 W
            Runtime Dynamic = 0.172839 W

          Instruction Decoder:
            Area = 1.85799 mm^2
            Peak Dynamic = 1.37404 W
            Subthreshold Leakage = 0.442943 W
            Subthreshold Leakage with power gating = 0.166104 W
            Gate Leakage = 0.0222493 W
            Runtime Dynamic = 0.587038 W

      Renaming Unit:
        Area = 0.0865297 mm^2
        Peak Dynamic = 1.02911 W
        Subthreshold Leakage = 0.020636 W
        Subthreshold Leakage with power gating = 0.00786506 W
        Gate Leakage = 0.00335557 W
        Runtime Dynamic = 0.225704 W

          Int Front End RAT:
            Area = 0 mm^2
            Peak Dynamic = 0.447984 W
            Subthreshold Leakage = 0 W
            Subthreshold Leakage with power gating = -nan W
            Gate Leakage = 0 W
            Runtime Dynamic = 0.191395 W

          FP Front End RAT:
            Area = 0 mm^2
            Peak Dynamic = 0.223992 W
            Subthreshold Leakage = 0 W
            Subthreshold Leakage with power gating = -nan W
            Gate Leakage = 0 W
            Runtime Dynamic = 1.48644e-05 W

          Free List:
            Area = 0.0414755 mm^2
            Peak Dynamic = 0.0401324 W
            Subthreshold Leakage = 0.000670426 W
            Subthreshold Leakage with power gating = 0.000377987 W
            Gate Leakage = 4.15911e-05 W
            Runtime Dynamic = 0.0342946 W

      Load Store Unit:
        Area = 8.80969 mm^2
        Peak Dynamic = 10.0966 W
        Subthreshold Leakage = 0.591622 W
        Subthreshold Leakage with power gating = 0.283406 W
        Gate Leakage = 0.0351387 W
        Runtime Dynamic = 5.88046 W

          Data Cache:
            Area = 6.84535 mm^2
            Peak Dynamic = 8.91832 W
            Subthreshold Leakage = 0.527675 W
            Subthreshold Leakage with power gating = 0.25085 W
            Gate Leakage = 0.0279261 W
            Runtime Dynamic = 4.2008 W

          LoadQ:
            Area = 0.0836782 mm^2
            Peak Dynamic = 0.248505 W
            Subthreshold Leakage = 0.00941961 W
            Subthreshold Leakage with power gating = 0.00536918 W
            Gate Leakage = 0.00059896 W
            Runtime Dynamic = 0.28317 W

          StoreQ:
            Area = 0.322079 mm^2
            Peak Dynamic = 0.612772 W
            Subthreshold Leakage = 0.0345621 W
            Subthreshold Leakage with power gating = 0.0197004 W
            Gate Leakage = 0.00329971 W
            Runtime Dynamic = 1.3965 W

      Memory Management Unit:
        Area = 0.346606 mm^2
        Peak Dynamic = 0.716991 W
        Subthreshold Leakage = 0.0613414 W
        Subthreshold Leakage with power gating = 0.0310713 W
        Gate Leakage = 0.00724862 W
        Runtime Dynamic = 0.140983 W

          Itlb:
            Area = 0.301552 mm^2
            Peak Dynamic = 0.399995 W
            Subthreshold Leakage = 0.0413758 W
            Subthreshold Leakage with power gating = 0.0235842 W
            Gate Leakage = 0.00393464 W
            Runtime Dynamic = 0.140983 W

          Dtlb:
            Area = 0 mm^2
            Peak Dynamic = 0 W
            Subthreshold Leakage = 0 W
            Subthreshold Leakage with power gating = -nan W
            Gate Leakage = 0 W
            Runtime Dynamic = 0 W

      Execution Unit:
        Area = 7.67783 mm^2
        Peak Dynamic = 4.65 W
        Subthreshold Leakage = 1.76298 W
        Subthreshold Leakage with power gating = 0.66816 W
        Gate Leakage = 0.117962 W
        Runtime Dynamic = 4.28282 W

          Register Files:
            Area = 0.725346 mm^2
            Peak Dynamic = 0.175936 W
            Subthreshold Leakage = 0.0122835 W
            Subthreshold Leakage with power gating = 0.00493351 W
            Gate Leakage = 0.00077984 W
            Runtime Dynamic = 0.209757 W

              Integer RF:
                Area = 0.362673 mm^2
                Peak Dynamic = 0.175858 W
                Subthreshold Leakage = 0.00614175 W
                Subthreshold Leakage with power gating = 0.00246675 W
                Gate Leakage = 0.00038992 W
                Runtime Dynamic = 0.179792 W

              Floating Point RF:
                Area = 0.362673 mm^2
                Peak Dynamic = 7.83579e-05 W
                Subthreshold Leakage = 0.00614175 W
                Subthreshold Leakage with power gating = 0.00246675 W
                Gate Leakage = 0.00038992 W
                Runtime Dynamic = 0.0299653 W

          Instruction Scheduler:
            Area = 1.49901 mm^2
            Peak Dynamic = 3.31117 W
            Subthreshold Leakage = 0.0413754 W
            Subthreshold Leakage with power gating = 0.0222326 W
            Gate Leakage = 0.00244394 W
            Runtime Dynamic = 1.67418 W

              Instruction Window:
                Area = 0.329703 mm^2
                Peak Dynamic = 0.542479 W
                Subthreshold Leakage = 0.006509 W
                Subthreshold Leakage with power gating = 0.00363852 W
                Gate Leakage = 0.000434043 W
                Runtime Dynamic = 0.231766 W

              FP Instruction Window:
                Area = 0.328073 mm^2
                Peak Dynamic = 1.20978 W
                Subthreshold Leakage = 0.017004 W
                Subthreshold Leakage with power gating = 0.00962066 W
                Gate Leakage = 0.00115349 W
                Runtime Dynamic = 0.670623 W

              ROB:
                Area = 0.841232 mm^2
                Peak Dynamic = 1.55892 W
                Subthreshold Leakage = 0.0178624 W
                Subthreshold Leakage with power gating = 0.00897339 W
                Gate Leakage = 0.000856399 W
                Runtime Dynamic = 0.771793 W

          Integer ALUs (Count: 6 ):
            Area = 0.47087 mm^2
            Peak Dynamic = 0.662833 W
            Subthreshold Leakage = 0.40222 W
            Subthreshold Leakage with power gating = 0.150833 W
            Gate Leakage = 0.0265291 W
            Runtime Dynamic = 0.711153 W

          Floating Point Units (FPUs) (Count: 2 ):
            Area = 4.6585 mm^2
            Peak Dynamic = 0.000336495 W
            Subthreshold Leakage = 0.994829 W
            Subthreshold Leakage with power gating = 0.373061 W
            Gate Leakage = 0.0656156 W
            Runtime Dynamic = 0.304181 W

          Complex ALUs (Mul/Div) (Count: 1 ):
            Area = 0.235435 mm^2
            Peak Dynamic = 0.000125644 W
            Subthreshold Leakage = 0.20111 W
            Subthreshold Leakage with power gating = 0.0754163 W
            Gate Leakage = 0.0132646 W
            Runtime Dynamic = 0.202787 W

          Results Broadcast Bus:
            Area Overhead = 0.0436135 mm^2
            Peak Dynamic = 0.40931 W
            Subthreshold Leakage = 0.0911921 W
            Subthreshold Leakage with power gating = 0.034197 W
            Gate Leakage = 0.00601473 W
            Runtime Dynamic = 1.18076 W

    L2
    Area = 4.53318 mm^2
    Peak Dynamic = 0.0424702 W
    Subthreshold Leakage = 0.834142 W
    Subthreshold Leakage with power gating = 0.401066 W
    Gate Leakage = 0.015464 W
    Runtime Dynamic = 0.00893995 W

*****************************************************************************************
Core:
      Area = 30.445 mm^2
      Peak Dynamic = 7.95513 W
      Subthreshold Leakage = 5.89985 W
      Subthreshold Leakage with power gating = 2.40096 W
      Gate Leakage = 0.350117 W
      Runtime Dynamic = 0.608556 W

      Instruction Fetch Unit:
        Area = 4.59444 mm^2
        Peak Dynamic = 2.21879 W
        Subthreshold Leakage = 0.751292 W
        Subthreshold Leakage with power gating = 0.305204 W
        Gate Leakage = 0.0470923 W
        Runtime Dynamic = 7.75811e-05 W

          Instruction Cache:
            Area = 1.88071 mm^2
            Peak Dynamic = 0.000241559 W
            Subthreshold Leakage = 0.185726 W
            Subthreshold Leakage with power gating = 0.0770478 W
            Gate Leakage = 0.0179754 W
            Runtime Dynamic = 2.97563e-05 W

          Branch Target Buffer:
            Area = 0.64954 mm^2
            Peak Dynamic = 0.177867 W
            Subthreshold Leakage = 0.0811682 W
            Subthreshold Leakage with power gating = 0.0435357 W
            Gate Leakage = 0.00272758 W
            Runtime Dynamic = 2.85139e-06 W

          Branch Predictor:
            Area = 0.138516 mm^2
            Peak Dynamic = 0.0597838 W
            Subthreshold Leakage = 0.0199703 W
            Subthreshold Leakage with power gating = 0.0103282 W
            Gate Leakage = 0.000757657 W
            Runtime Dynamic = 1.02185e-06 W

              Global Predictor:
                Area = 0.0435221 mm^2
                Peak Dynamic = 0.0168831 W
                Subthreshold Leakage = 0.00759719 W
                Subthreshold Leakage with power gating = 0.0039236 W
                Gate Leakage = 0.000278362 W
                Runtime Dynamic = 3.03334e-07 W

              Local Predictor:
              L1_Local Predictor:
                Area = 0.0257064 mm^2
                Peak Dynamic = 0.0142575 W
                Subthreshold Leakage = 0.00384344 W
                Subthreshold Leakage with power gating = 0.00198631 W
                Gate Leakage = 0.000154548 W
                Runtime Dynamic = 2.65797e-07 W

              L2_Local Predictor:
                Area = 0.0151917 mm^2
                Peak Dynamic = 0.00527447 W
                Subthreshold Leakage = 0.00181347 W
                Subthreshold Leakage with power gating = 0.000957045 W
                Gate Leakage = 8.00196e-05 W
                Runtime Dynamic = 1.03766e-07 W

              Chooser:
                Area = 0.0435221 mm^2
                Peak Dynamic = 0.0168831 W
                Subthreshold Leakage = 0.00759719 W
                Subthreshold Leakage with power gating = 0.0039236 W
                Gate Leakage = 0.000278362 W
                Runtime Dynamic = 3.03334e-07 W

              RAS:
                Area = 0.0105732 mm^2
                Peak Dynamic = 0.0117602 W
                Subthreshold Leakage = 0.000932505 W
                Subthreshold Leakage with power gating = 0.000494733 W
                Gate Leakage = 4.63858e-05 W
                Runtime Dynamic = 1.49385e-07 W

          Instruction Buffer:
            Area = 0.0226323 mm^2
            Peak Dynamic = 0.606827 W
            Subthreshold Leakage = 0.00151885 W
            Subthreshold Leakage with power gating = 0.000701682 W
            Gate Leakage = 6.83558e-05 W
            Runtime Dynamic = 9.99702e-06 W

          Instruction Decoder:
            Area = 1.85799 mm^2
            Peak Dynamic = 1.37404 W
            Subthreshold Leakage = 0.442943 W
            Subthreshold Leakage with power gating = 0.166104 W
            Gate Leakage = 0.0222493 W
            Runtime Dynamic = 3.39544e-05 W

      Renaming Unit:
        Area = 0.0865297 mm^2
        Peak Dynamic = 1.02911 W
        Subthreshold Leakage = 0.020636 W
        Subthreshold Leakage with power gating = 0.00786506 W
        Gate Leakage = 0.00335557 W
        Runtime Dynamic = 1.30539e-05 W

          Int Front End RAT:
            Area = 0 mm^2
            Peak Dynamic = 0.447984 W
            Subthreshold Leakage = 0 W
            Subthreshold Leakage with power gating = -nan W
            Gate Leakage = 0 W
            Runtime Dynamic = 1.10703e-05 W

          FP Front End RAT:
            Area = 0 mm^2
            Peak Dynamic = 0.223992 W
            Subthreshold Leakage = 0 W
            Subthreshold Leakage with power gating = -nan W
            Gate Leakage = 0 W
            Runtime Dynamic = 0 W

          Free List:
            Area = 0.0414755 mm^2
            Peak Dynamic = 0.0401324 W
            Subthreshold Leakage = 0.000670426 W
            Subthreshold Leakage with power gating = 0.000377987 W
            Gate Leakage = 4.15911e-05 W
            Runtime Dynamic = 1.98345e-06 W

      Load Store Unit:
        Area = 8.80969 mm^2
        Peak Dynamic = 1.23743 W
        Subthreshold Leakage = 0.591622 W
        Subthreshold Leakage with power gating = 0.283406 W
        Gate Leakage = 0.0351387 W
        Runtime Dynamic = 0.000182424 W

          Data Cache:
            Area = 6.84535 mm^2
            Peak Dynamic = 1.23739 W
            Subthreshold Leakage = 0.527675 W
            Subthreshold Leakage with power gating = 0.25085 W
            Gate Leakage = 0.0279261 W
            Runtime Dynamic = 0.000131432 W

          LoadQ:
            Area = 0.0836782 mm^2
            Peak Dynamic = 8.69768e-06 W
            Subthreshold Leakage = 0.00941961 W
            Subthreshold Leakage with power gating = 0.00536918 W
            Gate Leakage = 0.00059896 W
            Runtime Dynamic = 8.59657e-06 W

          StoreQ:
            Area = 0.322079 mm^2
            Peak Dynamic = 2.1447e-05 W
            Subthreshold Leakage = 0.0345621 W
            Subthreshold Leakage with power gating = 0.0197004 W
            Gate Leakage = 0.00329971 W
            Runtime Dynamic = 4.23953e-05 W

      Memory Management Unit:
        Area = 0.346606 mm^2
        Peak Dynamic = 0.158543 W
        Subthreshold Leakage = 0.0613414 W
        Subthreshold Leakage with power gating = 0.0310713 W
        Gate Leakage = 0.00724862 W
        Runtime Dynamic = 5.01542e-06 W

          Itlb:
            Area = 0.301552 mm^2
            Peak Dynamic = 3.95995e-05 W
            Subthreshold Leakage = 0.0413758 W
            Subthreshold Leakage with power gating = 0.0235842 W
            Gate Leakage = 0.00393464 W
            Runtime Dynamic = 5.01529e-06 W

          Dtlb:
            Area = 0 mm^2
            Peak Dynamic = 0 W
            Subthreshold Leakage = 0 W
            Subthreshold Leakage with power gating = -nan W
            Gate Leakage = 0 W
            Runtime Dynamic = 0 W

      Execution Unit:
        Area = 7.67783 mm^2
        Peak Dynamic = 3.31125 W
        Subthreshold Leakage = 1.76298 W
        Subthreshold Leakage with power gating = 0.66816 W
        Gate Leakage = 0.117962 W
        Runtime Dynamic = 0.608275 W

          Register Files:
            Area = 0.725346 mm^2
            Peak Dynamic = 9.87539e-06 W
            Subthreshold Leakage = 0.0122835 W
            Subthreshold Leakage with power gating = 0.00493351 W
            Gate Leakage = 0.00077984 W
            Runtime Dynamic = 1.21324e-05 W

              Integer RF:
                Area = 0.362673 mm^2
                Peak Dynamic = 9.87539e-06 W
                Subthreshold Leakage = 0.00614175 W
                Subthreshold Leakage with power gating = 0.00246675 W
                Gate Leakage = 0.00038992 W
                Runtime Dynamic = 1.03992e-05 W

              Floating Point RF:
                Area = 0.362673 mm^2
                Peak Dynamic = 0 W
                Subthreshold Leakage = 0.00614175 W
                Subthreshold Leakage with power gating = 0.00246675 W
                Gate Leakage = 0.00038992 W
                Runtime Dynamic = 1.7332e-06 W

          Instruction Scheduler:
            Area = 1.49901 mm^2
            Peak Dynamic = 3.31117 W
            Subthreshold Leakage = 0.0413754 W
            Subthreshold Leakage with power gating = 0.0222326 W
            Gate Leakage = 0.00244394 W
            Runtime Dynamic = 9.50171e-05 W

              Instruction Window:
                Area = 0.329703 mm^2
                Peak Dynamic = 0.542479 W
                Subthreshold Leakage = 0.006509 W
                Subthreshold Leakage with power gating = 0.00363852 W
                Gate Leakage = 0.000434043 W
                Runtime Dynamic = 1.34054e-05 W

              FP Instruction Window:
                Area = 0.328073 mm^2
                Peak Dynamic = 1.20978 W
                Subthreshold Leakage = 0.017004 W
                Subthreshold Leakage with power gating = 0.00962066 W
                Gate Leakage = 0.00115349 W
                Runtime Dynamic = 3.8789e-05 W

              ROB:
                Area = 0.841232 mm^2
                Peak Dynamic = 1.55892 W
                Subthreshold Leakage = 0.0178624 W
                Subthreshold Leakage with power gating = 0.00897339 W
                Gate Leakage = 0.000856399 W
                Runtime Dynamic = 4.28227e-05 W

          Integer ALUs (Count: 6 ):
            Area = 0.47087 mm^2
            Peak Dynamic = 3.72376e-05 W
            Subthreshold Leakage = 0.40222 W
            Subthreshold Leakage with power gating = 0.150833 W
            Gate Leakage = 0.0265291 W
            Runtime Dynamic = 0.101379 W

          Floating Point Units (FPUs) (Count: 2 ):
            Area = 4.6585 mm^2
            Peak Dynamic = 0 W
            Subthreshold Leakage = 0.994829 W
            Subthreshold Leakage with power gating = 0.373061 W
            Gate Leakage = 0.0656156 W
            Runtime Dynamic = 0.304033 W

          Complex ALUs (Mul/Div) (Count: 1 ):
            Area = 0.235435 mm^2
            Peak Dynamic = 0 W
            Subthreshold Leakage = 0.20111 W
            Subthreshold Leakage with power gating = 0.0754163 W
            Gate Leakage = 0.0132646 W
            Runtime Dynamic = 0.202689 W

          Results Broadcast Bus:
            Area Overhead = 0.0436135 mm^2
            Peak Dynamic = 2.29831e-05 W
            Subthreshold Leakage = 0.0911921 W
            Subthreshold Leakage with power gating = 0.034197 W
            Gate Leakage = 0.00601473 W
            Runtime Dynamic = 6.74029e-05 W

    L2
    Area = 4.53318 mm^2
    Peak Dynamic = 1.01786e-05 W
    Subthreshold Leakage = 0.834142 W
    Subthreshold Leakage with power gating = 0.401066 W
    Gate Leakage = 0.015464 W
    Runtime Dynamic = 2.5357e-06 W

*****************************************************************************************
Core:
      Area = 30.445 mm^2
      Peak Dynamic = 7.95509 W
      Subthreshold Leakage = 5.89985 W
      Subthreshold Leakage with power gating = 2.40096 W
      Gate Leakage = 0.350117 W
      Runtime Dynamic = 0.608541 W

      Instruction Fetch Unit:
        Area = 4.59444 mm^2
        Peak Dynamic = 2.21878 W
        Subthreshold Leakage = 0.751292 W
        Subthreshold Leakage with power gating = 0.305204 W
        Gate Leakage = 0.0470923 W
        Runtime Dynamic = 7.56193e-05 W

          Instruction Cache:
            Area = 1.88071 mm^2
            Peak Dynamic = 0.000234239 W
            Subthreshold Leakage = 0.185726 W
            Subthreshold Leakage with power gating = 0.0770478 W
            Gate Leakage = 0.0179754 W
            Runtime Dynamic = 2.91841e-05 W

          Branch Target Buffer:
            Area = 0.64954 mm^2
            Peak Dynamic = 0.177867 W
            Subthreshold Leakage = 0.0811682 W
            Subthreshold Leakage with power gating = 0.0435357 W
            Gate Leakage = 0.00272758 W
            Runtime Dynamic = 2.74808e-06 W

          Branch Predictor:
            Area = 0.138516 mm^2
            Peak Dynamic = 0.0597838 W
            Subthreshold Leakage = 0.0199703 W
            Subthreshold Leakage with power gating = 0.0103282 W
            Gate Leakage = 0.000757657 W
            Runtime Dynamic = 9.84554e-07 W

              Global Predictor:
                Area = 0.0435221 mm^2
                Peak Dynamic = 0.0168831 W
                Subthreshold Leakage = 0.00759719 W
                Subthreshold Leakage with power gating = 0.0039236 W
                Gate Leakage = 0.000278362 W
                Runtime Dynamic = 2.91886e-07 W

              Local Predictor:
              L1_Local Predictor:
                Area = 0.0257064 mm^2
                Peak Dynamic = 0.0142575 W
                Subthreshold Leakage = 0.00384344 W
                Subthreshold Leakage with power gating = 0.00198631 W
                Gate Leakage = 0.000154548 W
                Runtime Dynamic = 2.55645e-07 W

              L2_Local Predictor:
                Area = 0.0151917 mm^2
                Peak Dynamic = 0.00527447 W
                Subthreshold Leakage = 0.00181347 W
                Subthreshold Leakage with power gating = 0.000957045 W
                Gate Leakage = 8.00196e-05 W
                Runtime Dynamic = 9.97375e-08 W

              Chooser:
                Area = 0.0435221 mm^2
                Peak Dynamic = 0.0168831 W
                Subthreshold Leakage = 0.00759719 W
                Subthreshold Leakage with power gating = 0.0039236 W
                Gate Leakage = 0.000278362 W
                Runtime Dynamic = 2.91886e-07 W

              RAS:
                Area = 0.0105732 mm^2
                Peak Dynamic = 0.0117602 W
                Subthreshold Leakage = 0.000932505 W
                Subthreshold Leakage with power gating = 0.000494733 W
                Gate Leakage = 4.63858e-05 W
                Runtime Dynamic = 1.45137e-07 W

          Instruction Buffer:
            Area = 0.0226323 mm^2
            Peak Dynamic = 0.606827 W
            Subthreshold Leakage = 0.00151885 W
            Subthreshold Leakage with power gating = 0.000701682 W
            Gate Leakage = 6.83558e-05 W
            Runtime Dynamic = 9.71293e-06 W

          Instruction Decoder:
            Area = 1.85799 mm^2
            Peak Dynamic = 1.37404 W
            Subthreshold Leakage = 0.442943 W
            Subthreshold Leakage with power gating = 0.166104 W
            Gate Leakage = 0.0222493 W
            Runtime Dynamic = 3.29895e-05 W

      Renaming Unit:
        Area = 0.0865297 mm^2
        Peak Dynamic = 1.02911 W
        Subthreshold Leakage = 0.020636 W
        Subthreshold Leakage with power gating = 0.00786506 W
        Gate Leakage = 0.00335557 W
        Runtime Dynamic = 1.26829e-05 W

          Int Front End RAT:
            Area = 0 mm^2
            Peak Dynamic = 0.447984 W
            Subthreshold Leakage = 0 W
            Subthreshold Leakage with power gating = -nan W
            Gate Leakage = 0 W
            Runtime Dynamic = 1.07557e-05 W

          FP Front End RAT:
            Area = 0 mm^2
            Peak Dynamic = 0.223992 W
            Subthreshold Leakage = 0 W
            Subthreshold Leakage with power gating = -nan W
            Gate Leakage = 0 W
            Runtime Dynamic = 0 W

          Free List:
            Area = 0.0414755 mm^2
            Peak Dynamic = 0.0401324 W
            Subthreshold Leakage = 0.000670426 W
            Subthreshold Leakage with power gating = 0.000377987 W
            Gate Leakage = 4.15911e-05 W
            Runtime Dynamic = 1.92709e-06 W

      Load Store Unit:
        Area = 8.80969 mm^2
        Peak Dynamic = 1.23741 W
        Subthreshold Leakage = 0.591622 W
        Subthreshold Leakage with power gating = 0.283406 W
        Gate Leakage = 0.0351387 W
        Runtime Dynamic = 0.000176207 W

          Data Cache:
            Area = 6.84535 mm^2
            Peak Dynamic = 1.23737 W
            Subthreshold Leakage = 0.527675 W
            Subthreshold Leakage with power gating = 0.25085 W
            Gate Leakage = 0.0279261 W
            Runtime Dynamic = 0.000126919 W

          LoadQ:
            Area = 0.0836782 mm^2
            Peak Dynamic = 8.20067e-06 W
            Subthreshold Leakage = 0.00941961 W
            Subthreshold Leakage with power gating = 0.00536918 W
            Gate Leakage = 0.00059896 W
            Runtime Dynamic = 8.3093e-06 W

          StoreQ:
            Area = 0.322079 mm^2
            Peak Dynamic = 2.02215e-05 W
            Subthreshold Leakage = 0.0345621 W
            Subthreshold Leakage with power gating = 0.0197004 W
            Gate Leakage = 0.00329971 W
            Runtime Dynamic = 4.09786e-05 W

      Memory Management Unit:
        Area = 0.346606 mm^2
        Peak Dynamic = 0.158542 W
        Subthreshold Leakage = 0.0613414 W
        Subthreshold Leakage with power gating = 0.0310713 W
        Gate Leakage = 0.00724862 W
        Runtime Dynamic = 4.91647e-06 W

          Itlb:
            Area = 0.301552 mm^2
            Peak Dynamic = 3.83995e-05 W
            Subthreshold Leakage = 0.0413758 W
            Subthreshold Leakage with power gating = 0.0235842 W
            Gate Leakage = 0.00393464 W
            Runtime Dynamic = 4.91635e-06 W

          Dtlb:
            Area = 0 mm^2
            Peak Dynamic = 0 W
            Subthreshold Leakage = 0 W
            Subthreshold Leakage with power gating = -nan W
            Gate Leakage = 0 W
            Runtime Dynamic = 0 W

      Execution Unit:
        Area = 7.67783 mm^2
        Peak Dynamic = 3.31125 W
        Subthreshold Leakage = 1.76298 W
        Subthreshold Leakage with power gating = 0.66816 W
        Gate Leakage = 0.117962 W
        Runtime Dynamic = 0.608269 W

          Register Files:
            Area = 0.725346 mm^2
            Peak Dynamic = 9.87539e-06 W
            Subthreshold Leakage = 0.0122835 W
            Subthreshold Leakage with power gating = 0.00493351 W
            Gate Leakage = 0.00077984 W
            Runtime Dynamic = 1.17876e-05 W

              Integer RF:
                Area = 0.362673 mm^2
                Peak Dynamic = 9.87539e-06 W
                Subthreshold Leakage = 0.00614175 W
                Subthreshold Leakage with power gating = 0.00246675 W
                Gate Leakage = 0.00038992 W
                Runtime Dynamic = 1.01037e-05 W

              Floating Point RF:
                Area = 0.362673 mm^2
                Peak Dynamic = 0 W
                Subthreshold Leakage = 0.00614175 W
                Subthreshold Leakage with power gating = 0.00246675 W
                Gate Leakage = 0.00038992 W
                Runtime Dynamic = 1.68394e-06 W

          Instruction Scheduler:
            Area = 1.49901 mm^2
            Peak Dynamic = 3.31117 W
            Subthreshold Leakage = 0.0413754 W
            Subthreshold Leakage with power gating = 0.0222326 W
            Gate Leakage = 0.00244394 W
            Runtime Dynamic = 9.23405e-05 W

              Instruction Window:
                Area = 0.329703 mm^2
                Peak Dynamic = 0.542479 W
                Subthreshold Leakage = 0.006509 W
                Subthreshold Leakage with power gating = 0.00363852 W
                Gate Leakage = 0.000434043 W
                Runtime Dynamic = 1.30245e-05 W

              FP Instruction Window:
                Area = 0.328073 mm^2
                Peak Dynamic = 1.20978 W
                Subthreshold Leakage = 0.017004 W
                Subthreshold Leakage with power gating = 0.00962066 W
                Gate Leakage = 0.00115349 W
                Runtime Dynamic = 3.76866e-05 W

              ROB:
                Area = 0.841232 mm^2
                Peak Dynamic = 1.55892 W
                Subthreshold Leakage = 0.0178624 W
                Subthreshold Leakage with power gating = 0.00897339 W
                Gate Leakage = 0.000856399 W
                Runtime Dynamic = 4.16295e-05 W

          Integer ALUs (Count: 6 ):
            Area = 0.47087 mm^2
            Peak Dynamic = 3.72376e-05 W
            Subthreshold Leakage = 0.40222 W
            Subthreshold Leakage with power gating = 0.150833 W
            Gate Leakage = 0.0265291 W
            Runtime Dynamic = 0.101378 W

          Floating Point Units (FPUs) (Count: 2 ):
            Area = 4.6585 mm^2
            Peak Dynamic = 0 W
            Subthreshold Leakage = 0.994829 W
            Subthreshold Leakage with power gating = 0.373061 W
            Gate Leakage = 0.0656156 W
            Runtime Dynamic = 0.304033 W

          Complex ALUs (Mul/Div) (Count: 1 ):
            Area = 0.235435 mm^2
            Peak Dynamic = 0 W
            Subthreshold Leakage = 0.20111 W
            Subthreshold Leakage with power gating = 0.0754163 W
            Gate Leakage = 0.0132646 W
            Runtime Dynamic = 0.202689 W

          Results Broadcast Bus:
            Area Overhead = 0.0436135 mm^2
            Peak Dynamic = 2.29831e-05 W
            Subthreshold Leakage = 0.0911921 W
            Subthreshold Leakage with power gating = 0.034197 W
            Gate Leakage = 0.00601473 W
            Runtime Dynamic = 6.56211e-05 W

    L2
    Area = 4.53318 mm^2
    Peak Dynamic = 5.0893e-06 W
    Subthreshold Leakage = 0.834142 W
    Subthreshold Leakage with power gating = 0.401066 W
    Gate Leakage = 0.015464 W
    Runtime Dynamic = 2.33361e-06 W

*****************************************************************************************
Core:
      Area = 30.445 mm^2
      Peak Dynamic = 7.95441 W
      Subthreshold Leakage = 5.89985 W
      Subthreshold Leakage with power gating = 2.40096 W
      Gate Leakage = 0.350117 W
      Runtime Dynamic = 0.608066 W

      Instruction Fetch Unit:
        Area = 4.59444 mm^2
        Peak Dynamic = 2.21852 W
        Subthreshold Leakage = 0.751292 W
        Subthreshold Leakage with power gating = 0.305204 W
        Gate Leakage = 0.0470923 W
        Runtime Dynamic = 1.28396e-10 W

          Instruction Cache:
            Area = 1.88071 mm^2
            Peak Dynamic = 0 W
            Subthreshold Leakage = 0.185726 W
            Subthreshold Leakage with power gating = 0.0770478 W
            Gate Leakage = 0.0179754 W
            Runtime Dynamic = 0 W

          Branch Target Buffer:
            Area = 0.64954 mm^2
            Peak Dynamic = 0.177867 W
            Subthreshold Leakage = 0.0811682 W
            Subthreshold Leakage with power gating = 0.0435357 W
            Gate Leakage = 0.00272758 W
            Runtime Dynamic = 0 W

          Branch Predictor:
            Area = 0.138516 mm^2
            Peak Dynamic = 0.0597838 W
            Subthreshold Leakage = 0.0199703 W
            Subthreshold Leakage with power gating = 0.0103282 W
            Gate Leakage = 0.000757657 W
            Runtime Dynamic = 0 W

              Global Predictor:
                Area = 0.0435221 mm^2
                Peak Dynamic = 0.0168831 W
                Subthreshold Leakage = 0.00759719 W
                Subthreshold Leakage with power gating = 0.0039236 W
                Gate Leakage = 0.000278362 W
                Runtime Dynamic = 0 W

              Local Predictor:
              L1_Local Predictor:
                Area = 0.0257064 mm^2
                Peak Dynamic = 0.0142575 W
                Subthreshold Leakage = 0.00384344 W
                Subthreshold Leakage with power gating = 0.00198631 W
                Gate Leakage = 0.000154548 W
                Runtime Dynamic = 0 W

              L2_Local Predictor:
                Area = 0.0151917 mm^2
                Peak Dynamic = 0.00527447 W
                Subthreshold Leakage = 0.00181347 W
                Subthreshold Leakage with power gating = 0.000957045 W
                Gate Leakage = 8.00196e-05 W
                Runtime Dynamic = 0 W

              Chooser:
                Area = 0.0435221 mm^2
                Peak Dynamic = 0.0168831 W
                Subthreshold Leakage = 0.00759719 W
                Subthreshold Leakage with power gating = 0.0039236 W
                Gate Leakage = 0.000278362 W
                Runtime Dynamic = 0 W

              RAS:
                Area = 0.0105732 mm^2
                Peak Dynamic = 0.0117602 W
                Subthreshold Leakage = 0.000932505 W
                Subthreshold Leakage with power gating = 0.000494733 W
                Gate Leakage = 4.63858e-05 W
                Runtime Dynamic = 0 W

          Instruction Buffer:
            Area = 0.0226323 mm^2
            Peak Dynamic = 0.606827 W
            Subthreshold Leakage = 0.00151885 W
            Subthreshold Leakage with power gating = 0.000701682 W
            Gate Leakage = 6.83558e-05 W
            Runtime Dynamic = 0 W

          Instruction Decoder:
            Area = 1.85799 mm^2
            Peak Dynamic = 1.37404 W
            Subthreshold Leakage = 0.442943 W
            Subthreshold Leakage with power gating = 0.166104 W
            Gate Leakage = 0.0222493 W
            Runtime Dynamic = 0 W

      Renaming Unit:
        Area = 0.0865297 mm^2
        Peak Dynamic = 1.02911 W
        Subthreshold Leakage = 0.020636 W
        Subthreshold Leakage with power gating = 0.00786506 W
        Gate Leakage = 0.00335557 W
        Runtime Dynamic = 1.28396e-10 W

          Int Front End RAT:
            Area = 0 mm^2
            Peak Dynamic = 0.447984 W
            Subthreshold Leakage = 0 W
            Subthreshold Leakage with power gating = -nan W
            Gate Leakage = 0 W
            Runtime Dynamic = 0 W

          FP Front End RAT:
            Area = 0 mm^2
            Peak Dynamic = 0.223992 W
            Subthreshold Leakage = 0 W
            Subthreshold Leakage with power gating = -nan W
            Gate Leakage = 0 W
            Runtime Dynamic = 0 W

          Free List:
            Area = 0.0414755 mm^2
            Peak Dynamic = 0.0401324 W
            Subthreshold Leakage = 0.000670426 W
            Subthreshold Leakage with power gating = 0.000377987 W
            Gate Leakage = 4.15911e-05 W
            Runtime Dynamic = 0 W

      Load Store Unit:
        Area = 8.80969 mm^2
        Peak Dynamic = 1.23712 W
        Subthreshold Leakage = 0.591622 W
        Subthreshold Leakage with power gating = 0.283406 W
        Gate Leakage = 0.0351387 W
        Runtime Dynamic = 1.28396e-10 W

          Data Cache:
            Area = 6.84535 mm^2
            Peak Dynamic = 1.23712 W
            Subthreshold Leakage = 0.527675 W
            Subthreshold Leakage with power gating = 0.25085 W
            Gate Leakage = 0.0279261 W
            Runtime Dynamic = 0 W

          LoadQ:
            Area = 0.0836782 mm^2
            Peak Dynamic = 0 W
            Subthreshold Leakage = 0.00941961 W
            Subthreshold Leakage with power gating = 0.00536918 W
            Gate Leakage = 0.00059896 W
            Runtime Dynamic = 0 W

          StoreQ:
            Area = 0.322079 mm^2
            Peak Dynamic = 0 W
            Subthreshold Leakage = 0.0345621 W
            Subthreshold Leakage with power gating = 0.0197004 W
            Gate Leakage = 0.00329971 W
            Runtime Dynamic = 0 W

      Memory Management Unit:
        Area = 0.346606 mm^2
        Peak Dynamic = 0.158498 W
        Subthreshold Leakage = 0.0613414 W
        Subthreshold Leakage with power gating = 0.0310713 W
        Gate Leakage = 0.00724862 W
        Runtime Dynamic = 1.28396e-10 W

          Itlb:
            Area = 0.301552 mm^2
            Peak Dynamic = 0 W
            Subthreshold Leakage = 0.0413758 W
            Subthreshold Leakage with power gating = 0.0235842 W
            Gate Leakage = 0.00393464 W
            Runtime Dynamic = 0 W

          Dtlb:
            Area = 0 mm^2
            Peak Dynamic = 0 W
            Subthreshold Leakage = 0 W
            Subthreshold Leakage with power gating = -nan W
            Gate Leakage = 0 W
            Runtime Dynamic = 0 W

      Execution Unit:
        Area = 7.67783 mm^2
        Peak Dynamic = 3.31117 W
        Subthreshold Leakage = 1.76298 W
        Subthreshold Leakage with power gating = 0.66816 W
        Gate Leakage = 0.117962 W
        Runtime Dynamic = 0.608066 W

          Register Files:
            Area = 0.725346 mm^2
            Peak Dynamic = 0 W
            Subthreshold Leakage = 0.0122835 W
            Subthreshold Leakage with power gating = 0.00493351 W
            Gate Leakage = 0.00077984 W
            Runtime Dynamic = 0 W

              Integer RF:
                Area = 0.362673 mm^2
                Peak Dynamic = 0 W
                Subthreshold Leakage = 0.00614175 W
                Subthreshold Leakage with power gating = 0.00246675 W
                Gate Leakage = 0.00038992 W
                Runtime Dynamic = 0 W

              Floating Point RF:
                Area = 0.362673 mm^2
                Peak Dynamic = 0 W
                Subthreshold Leakage = 0.00614175 W
                Subthreshold Leakage with power gating = 0.00246675 W
                Gate Leakage = 0.00038992 W
                Runtime Dynamic = 0 W

          Instruction Scheduler:
            Area = 1.49901 mm^2
            Peak Dynamic = 3.31117 W
            Subthreshold Leakage = 0.0413754 W
            Subthreshold Leakage with power gating = 0.0222326 W
            Gate Leakage = 0.00244394 W
            Runtime Dynamic = 0 W

              Instruction Window:
                Area = 0.329703 mm^2
                Peak Dynamic = 0.542479 W
                Subthreshold Leakage = 0.006509 W
                Subthreshold Leakage with power gating = 0.00363852 W
                Gate Leakage = 0.000434043 W
                Runtime Dynamic = 0 W

              FP Instruction Window:
                Area = 0.328073 mm^2
                Peak Dynamic = 1.20978 W
                Subthreshold Leakage = 0.017004 W
                Subthreshold Leakage with power gating = 0.00962066 W
                Gate Leakage = 0.00115349 W
                Runtime Dynamic = 0 W

              ROB:
                Area = 0.841232 mm^2
                Peak Dynamic = 1.55892 W
                Subthreshold Leakage = 0.0178624 W
                Subthreshold Leakage with power gating = 0.00897339 W
                Gate Leakage = 0.000856399 W
                Runtime Dynamic = 0 W

          Integer ALUs (Count: 6 ):
            Area = 0.47087 mm^2
            Peak Dynamic = 0 W
            Subthreshold Leakage = 0.40222 W
            Subthreshold Leakage with power gating = 0.150833 W
            Gate Leakage = 0.0265291 W
            Runtime Dynamic = 0.101344 W

          Floating Point Units (FPUs) (Count: 2 ):
            Area = 4.6585 mm^2
            Peak Dynamic = 0 W
            Subthreshold Leakage = 0.994829 W
            Subthreshold Leakage with power gating = 0.373061 W
            Gate Leakage = 0.0656156 W
            Runtime Dynamic = 0.304033 W

          Complex ALUs (Mul/Div) (Count: 1 ):
            Area = 0.235435 mm^2
            Peak Dynamic = 0 W
            Subthreshold Leakage = 0.20111 W
            Subthreshold Leakage with power gating = 0.0754163 W
            Gate Leakage = 0.0132646 W
            Runtime Dynamic = 0.202689 W

          Results Broadcast Bus:
            Area Overhead = 0.0436135 mm^2
            Peak Dynamic = 0 W
            Subthreshold Leakage = 0.0911921 W
            Subthreshold Leakage with power gating = 0.034197 W
            Gate Leakage = 0.00601473 W
            Runtime Dynamic = 0 W

    L2
    Area = 4.53318 mm^2
    Peak Dynamic = 0 W
    Subthreshold Leakage = 0.834142 W
    Subthreshold Leakage with power gating = 0.401066 W
    Gate Leakage = 0.015464 W
    Runtime Dynamic = 8.09299e-10 W

*****************************************************************************************
Core:
      Area = 30.445 mm^2
      Peak Dynamic = 7.95441 W
      Subthreshold Leakage = 5.89985 W
      Subthreshold Leakage with power gating = 2.40096 W
      Gate Leakage = 0.350117 W
      Runtime Dynamic = 0.608066 W

      Instruction Fetch Unit:
        Area = 4.59444 mm^2
        Peak Dynamic = 2.21852 W
        Subthreshold Leakage = 0.751292 W
        Subthreshold Leakage with power gating = 0.305204 W
        Gate Leakage = 0.0470923 W
        Runtime Dynamic = 1.28396e-10 W

          Instruction Cache:
            Area = 1.88071 mm^2
            Peak Dynamic = 0 W
            Subthreshold Leakage = 0.185726 W
            Subthreshold Leakage with power gating = 0.0770478 W
            Gate Leakage = 0.0179754 W
            Runtime Dynamic = 0 W

          Branch Target Buffer:
            Area = 0.64954 mm^2
            Peak Dynamic = 0.177867 W
            Subthreshold Leakage = 0.0811682 W
            Subthreshold Leakage with power gating = 0.0435357 W
            Gate Leakage = 0.00272758 W
            Runtime Dynamic = 0 W

          Branch Predictor:
            Area = 0.138516 mm^2
            Peak Dynamic = 0.0597838 W
            Subthreshold Leakage = 0.0199703 W
            Subthreshold Leakage with power gating = 0.0103282 W
            Gate Leakage = 0.000757657 W
            Runtime Dynamic = 0 W

              Global Predictor:
                Area = 0.0435221 mm^2
                Peak Dynamic = 0.0168831 W
                Subthreshold Leakage = 0.00759719 W
                Subthreshold Leakage with power gating = 0.0039236 W
                Gate Leakage = 0.000278362 W
                Runtime Dynamic = 0 W

              Local Predictor:
              L1_Local Predictor:
                Area = 0.0257064 mm^2
                Peak Dynamic = 0.0142575 W
                Subthreshold Leakage = 0.00384344 W
                Subthreshold Leakage with power gating = 0.00198631 W
                Gate Leakage = 0.000154548 W
                Runtime Dynamic = 0 W

              L2_Local Predictor:
                Area = 0.0151917 mm^2
                Peak Dynamic = 0.00527447 W
                Subthreshold Leakage = 0.00181347 W
                Subthreshold Leakage with power gating = 0.000957045 W
                Gate Leakage = 8.00196e-05 W
                Runtime Dynamic = 0 W

              Chooser:
                Area = 0.0435221 mm^2
                Peak Dynamic = 0.0168831 W
                Subthreshold Leakage = 0.00759719 W
                Subthreshold Leakage with power gating = 0.0039236 W
                Gate Leakage = 0.000278362 W
                Runtime Dynamic = 0 W

              RAS:
                Area = 0.0105732 mm^2
                Peak Dynamic = 0.0117602 W
                Subthreshold Leakage = 0.000932505 W
                Subthreshold Leakage with power gating = 0.000494733 W
                Gate Leakage = 4.63858e-05 W
                Runtime Dynamic = 0 W

          Instruction Buffer:
            Area = 0.0226323 mm^2
            Peak Dynamic = 0.606827 W
            Subthreshold Leakage = 0.00151885 W
            Subthreshold Leakage with power gating = 0.000701682 W
            Gate Leakage = 6.83558e-05 W
            Runtime Dynamic = 0 W

          Instruction Decoder:
            Area = 1.85799 mm^2
            Peak Dynamic = 1.37404 W
            Subthreshold Leakage = 0.442943 W
            Subthreshold Leakage with power gating = 0.166104 W
            Gate Leakage = 0.0222493 W
            Runtime Dynamic = 0 W

      Renaming Unit:
        Area = 0.0865297 mm^2
        Peak Dynamic = 1.02911 W
        Subthreshold Leakage = 0.020636 W
        Subthreshold Leakage with power gating = 0.00786506 W
        Gate Leakage = 0.00335557 W
        Runtime Dynamic = 1.28396e-10 W

          Int Front End RAT:
            Area = 0 mm^2
            Peak Dynamic = 0.447984 W
            Subthreshold Leakage = 0 W
            Subthreshold Leakage with power gating = -nan W
            Gate Leakage = 0 W
            Runtime Dynamic = 0 W

          FP Front End RAT:
            Area = 0 mm^2
            Peak Dynamic = 0.223992 W
            Subthreshold Leakage = 0 W
            Subthreshold Leakage with power gating = -nan W
            Gate Leakage = 0 W
            Runtime Dynamic = 0 W

          Free List:
            Area = 0.0414755 mm^2
            Peak Dynamic = 0.0401324 W
            Subthreshold Leakage = 0.000670426 W
            Subthreshold Leakage with power gating = 0.000377987 W
            Gate Leakage = 4.15911e-05 W
            Runtime Dynamic = 0 W

      Load Store Unit:
        Area = 8.80969 mm^2
        Peak Dynamic = 1.23712 W
        Subthreshold Leakage = 0.591622 W
        Subthreshold Leakage with power gating = 0.283406 W
        Gate Leakage = 0.0351387 W
        Runtime Dynamic = 1.28396e-10 W

          Data Cache:
            Area = 6.84535 mm^2
            Peak Dynamic = 1.23712 W
            Subthreshold Leakage = 0.527675 W
            Subthreshold Leakage with power gating = 0.25085 W
            Gate Leakage = 0.0279261 W
            Runtime Dynamic = 0 W

          LoadQ:
            Area = 0.0836782 mm^2
            Peak Dynamic = 0 W
            Subthreshold Leakage = 0.00941961 W
            Subthreshold Leakage with power gating = 0.00536918 W
            Gate Leakage = 0.00059896 W
            Runtime Dynamic = 0 W

          StoreQ:
            Area = 0.322079 mm^2
            Peak Dynamic = 0 W
            Subthreshold Leakage = 0.0345621 W
            Subthreshold Leakage with power gating = 0.0197004 W
            Gate Leakage = 0.00329971 W
            Runtime Dynamic = 0 W

      Memory Management Unit:
        Area = 0.346606 mm^2
        Peak Dynamic = 0.158498 W
        Subthreshold Leakage = 0.0613414 W
        Subthreshold Leakage with power gating = 0.0310713 W
        Gate Leakage = 0.00724862 W
        Runtime Dynamic = 1.28396e-10 W

          Itlb:
            Area = 0.301552 mm^2
            Peak Dynamic = 0 W
            Subthreshold Leakage = 0.0413758 W
            Subthreshold Leakage with power gating = 0.0235842 W
            Gate Leakage = 0.00393464 W
            Runtime Dynamic = 0 W

          Dtlb:
            Area = 0 mm^2
            Peak Dynamic = 0 W
            Subthreshold Leakage = 0 W
            Subthreshold Leakage with power gating = -nan W
            Gate Leakage = 0 W
            Runtime Dynamic = 0 W

      Execution Unit:
        Area = 7.67783 mm^2
        Peak Dynamic = 3.31117 W
        Subthreshold Leakage = 1.76298 W
        Subthreshold Leakage with power gating = 0.66816 W
        Gate Leakage = 0.117962 W
        Runtime Dynamic = 0.608066 W

          Register Files:
            Area = 0.725346 mm^2
            Peak Dynamic = 0 W
            Subthreshold Leakage = 0.0122835 W
            Subthreshold Leakage with power gating = 0.00493351 W
            Gate Leakage = 0.00077984 W
            Runtime Dynamic = 0 W

              Integer RF:
                Area = 0.362673 mm^2
                Peak Dynamic = 0 W
                Subthreshold Leakage = 0.00614175 W
                Subthreshold Leakage with power gating = 0.00246675 W
                Gate Leakage = 0.00038992 W
                Runtime Dynamic = 0 W

              Floating Point RF:
                Area = 0.362673 mm^2
                Peak Dynamic = 0 W
                Subthreshold Leakage = 0.00614175 W
                Subthreshold Leakage with power gating = 0.00246675 W
                Gate Leakage = 0.00038992 W
                Runtime Dynamic = 0 W

          Instruction Scheduler:
            Area = 1.49901 mm^2
            Peak Dynamic = 3.31117 W
            Subthreshold Leakage = 0.0413754 W
            Subthreshold Leakage with power gating = 0.0222326 W
            Gate Leakage = 0.00244394 W
            Runtime Dynamic = 0 W

              Instruction Window:
                Area = 0.329703 mm^2
                Peak Dynamic = 0.542479 W
                Subthreshold Leakage = 0.006509 W
                Subthreshold Leakage with power gating = 0.00363852 W
                Gate Leakage = 0.000434043 W
                Runtime Dynamic = 0 W

              FP Instruction Window:
                Area = 0.328073 mm^2
                Peak Dynamic = 1.20978 W
                Subthreshold Leakage = 0.017004 W
                Subthreshold Leakage with power gating = 0.00962066 W
                Gate Leakage = 0.00115349 W
                Runtime Dynamic = 0 W

              ROB:
                Area = 0.841232 mm^2
                Peak Dynamic = 1.55892 W
                Subthreshold Leakage = 0.0178624 W
                Subthreshold Leakage with power gating = 0.00897339 W
                Gate Leakage = 0.000856399 W
                Runtime Dynamic = 0 W

          Integer ALUs (Count: 6 ):
            Area = 0.47087 mm^2
            Peak Dynamic = 0 W
            Subthreshold Leakage = 0.40222 W
            Subthreshold Leakage with power gating = 0.150833 W
            Gate Leakage = 0.0265291 W
            Runtime Dynamic = 0.101344 W

          Floating Point Units (FPUs) (Count: 2 ):
            Area = 4.6585 mm^2
            Peak Dynamic = 0 W
            Subthreshold Leakage = 0.994829 W
            Subthreshold Leakage with power gating = 0.373061 W
            Gate Leakage = 0.0656156 W
            Runtime Dynamic = 0.304033 W

          Complex ALUs (Mul/Div) (Count: 1 ):
            Area = 0.235435 mm^2
            Peak Dynamic = 0 W
            Subthreshold Leakage = 0.20111 W
            Subthreshold Leakage with power gating = 0.0754163 W
            Gate Leakage = 0.0132646 W
            Runtime Dynamic = 0.202689 W

          Results Broadcast Bus:
            Area Overhead = 0.0436135 mm^2
            Peak Dynamic = 0 W
            Subthreshold Leakage = 0.0911921 W
            Subthreshold Leakage with power gating = 0.034197 W
            Gate Leakage = 0.00601473 W
            Runtime Dynamic = 0 W

    L2
    Area = 4.53318 mm^2
    Peak Dynamic = 0 W
    Subthreshold Leakage = 0.834142 W
    Subthreshold Leakage with power gating = 0.401066 W
    Gate Leakage = 0.015464 W
    Runtime Dynamic = 8.09299e-10 W

*****************************************************************************************
Core:
      Area = 30.445 mm^2
      Peak Dynamic = 7.95441 W
      Subthreshold Leakage = 5.89985 W
      Subthreshold Leakage with power gating = 2.40096 W
      Gate Leakage = 0.350117 W
      Runtime Dynamic = 0.608066 W

      Instruction Fetch Unit:
        Area = 4.59444 mm^2
        Peak Dynamic = 2.21852 W
        Subthreshold Leakage = 0.751292 W
        Subthreshold Leakage with power gating = 0.305204 W
        Gate Leakage = 0.0470923 W
        Runtime Dynamic = 1.28396e-10 W

          Instruction Cache:
            Area = 1.88071 mm^2
            Peak Dynamic = 0 W
            Subthreshold Leakage = 0.185726 W
            Subthreshold Leakage with power gating = 0.0770478 W
            Gate Leakage = 0.0179754 W
            Runtime Dynamic = 0 W

          Branch Target Buffer:
            Area = 0.64954 mm^2
            Peak Dynamic = 0.177867 W
            Subthreshold Leakage = 0.0811682 W
            Subthreshold Leakage with power gating = 0.0435357 W
            Gate Leakage = 0.00272758 W
            Runtime Dynamic = 0 W

          Branch Predictor:
            Area = 0.138516 mm^2
            Peak Dynamic = 0.0597838 W
            Subthreshold Leakage = 0.0199703 W
            Subthreshold Leakage with power gating = 0.0103282 W
            Gate Leakage = 0.000757657 W
            Runtime Dynamic = 0 W

              Global Predictor:
                Area = 0.0435221 mm^2
                Peak Dynamic = 0.0168831 W
                Subthreshold Leakage = 0.00759719 W
                Subthreshold Leakage with power gating = 0.0039236 W
                Gate Leakage = 0.000278362 W
                Runtime Dynamic = 0 W

              Local Predictor:
              L1_Local Predictor:
                Area = 0.0257064 mm^2
                Peak Dynamic = 0.0142575 W
                Subthreshold Leakage = 0.00384344 W
                Subthreshold Leakage with power gating = 0.00198631 W
                Gate Leakage = 0.000154548 W
                Runtime Dynamic = 0 W

              L2_Local Predictor:
                Area = 0.0151917 mm^2
                Peak Dynamic = 0.00527447 W
                Subthreshold Leakage = 0.00181347 W
                Subthreshold Leakage with power gating = 0.000957045 W
                Gate Leakage = 8.00196e-05 W
                Runtime Dynamic = 0 W

              Chooser:
                Area = 0.0435221 mm^2
                Peak Dynamic = 0.0168831 W
                Subthreshold Leakage = 0.00759719 W
                Subthreshold Leakage with power gating = 0.0039236 W
                Gate Leakage = 0.000278362 W
                Runtime Dynamic = 0 W

              RAS:
                Area = 0.0105732 mm^2
                Peak Dynamic = 0.0117602 W
                Subthreshold Leakage = 0.000932505 W
                Subthreshold Leakage with power gating = 0.000494733 W
                Gate Leakage = 4.63858e-05 W
                Runtime Dynamic = 0 W

          Instruction Buffer:
            Area = 0.0226323 mm^2
            Peak Dynamic = 0.606827 W
            Subthreshold Leakage = 0.00151885 W
            Subthreshold Leakage with power gating = 0.000701682 W
            Gate Leakage = 6.83558e-05 W
            Runtime Dynamic = 0 W

          Instruction Decoder:
            Area = 1.85799 mm^2
            Peak Dynamic = 1.37404 W
            Subthreshold Leakage = 0.442943 W
            Subthreshold Leakage with power gating = 0.166104 W
            Gate Leakage = 0.0222493 W
            Runtime Dynamic = 0 W

      Renaming Unit:
        Area = 0.0865297 mm^2
        Peak Dynamic = 1.02911 W
        Subthreshold Leakage = 0.020636 W
        Subthreshold Leakage with power gating = 0.00786506 W
        Gate Leakage = 0.00335557 W
        Runtime Dynamic = 1.28396e-10 W

          Int Front End RAT:
            Area = 0 mm^2
            Peak Dynamic = 0.447984 W
            Subthreshold Leakage = 0 W
            Subthreshold Leakage with power gating = -nan W
            Gate Leakage = 0 W
            Runtime Dynamic = 0 W

          FP Front End RAT:
            Area = 0 mm^2
            Peak Dynamic = 0.223992 W
            Subthreshold Leakage = 0 W
            Subthreshold Leakage with power gating = -nan W
            Gate Leakage = 0 W
            Runtime Dynamic = 0 W

          Free List:
            Area = 0.0414755 mm^2
            Peak Dynamic = 0.0401324 W
            Subthreshold Leakage = 0.000670426 W
            Subthreshold Leakage with power gating = 0.000377987 W
            Gate Leakage = 4.15911e-05 W
            Runtime Dynamic = 0 W

      Load Store Unit:
        Area = 8.80969 mm^2
        Peak Dynamic = 1.23712 W
        Subthreshold Leakage = 0.591622 W
        Subthreshold Leakage with power gating = 0.283406 W
        Gate Leakage = 0.0351387 W
        Runtime Dynamic = 1.28396e-10 W

          Data Cache:
            Area = 6.84535 mm^2
            Peak Dynamic = 1.23712 W
            Subthreshold Leakage = 0.527675 W
            Subthreshold Leakage with power gating = 0.25085 W
            Gate Leakage = 0.0279261 W
            Runtime Dynamic = 0 W

          LoadQ:
            Area = 0.0836782 mm^2
            Peak Dynamic = 0 W
            Subthreshold Leakage = 0.00941961 W
            Subthreshold Leakage with power gating = 0.00536918 W
            Gate Leakage = 0.00059896 W
            Runtime Dynamic = 0 W

          StoreQ:
            Area = 0.322079 mm^2
            Peak Dynamic = 0 W
            Subthreshold Leakage = 0.0345621 W
            Subthreshold Leakage with power gating = 0.0197004 W
            Gate Leakage = 0.00329971 W
            Runtime Dynamic = 0 W

      Memory Management Unit:
        Area = 0.346606 mm^2
        Peak Dynamic = 0.158498 W
        Subthreshold Leakage = 0.0613414 W
        Subthreshold Leakage with power gating = 0.0310713 W
        Gate Leakage = 0.00724862 W
        Runtime Dynamic = 1.28396e-10 W

          Itlb:
            Area = 0.301552 mm^2
            Peak Dynamic = 0 W
            Subthreshold Leakage = 0.0413758 W
            Subthreshold Leakage with power gating = 0.0235842 W
            Gate Leakage = 0.00393464 W
            Runtime Dynamic = 0 W

          Dtlb:
            Area = 0 mm^2
            Peak Dynamic = 0 W
            Subthreshold Leakage = 0 W
            Subthreshold Leakage with power gating = -nan W
            Gate Leakage = 0 W
            Runtime Dynamic = 0 W

      Execution Unit:
        Area = 7.67783 mm^2
        Peak Dynamic = 3.31117 W
        Subthreshold Leakage = 1.76298 W
        Subthreshold Leakage with power gating = 0.66816 W
        Gate Leakage = 0.117962 W
        Runtime Dynamic = 0.608066 W

          Register Files:
            Area = 0.725346 mm^2
            Peak Dynamic = 0 W
            Subthreshold Leakage = 0.0122835 W
            Subthreshold Leakage with power gating = 0.00493351 W
            Gate Leakage = 0.00077984 W
            Runtime Dynamic = 0 W

              Integer RF:
                Area = 0.362673 mm^2
                Peak Dynamic = 0 W
                Subthreshold Leakage = 0.00614175 W
                Subthreshold Leakage with power gating = 0.00246675 W
                Gate Leakage = 0.00038992 W
                Runtime Dynamic = 0 W

              Floating Point RF:
                Area = 0.362673 mm^2
                Peak Dynamic = 0 W
                Subthreshold Leakage = 0.00614175 W
                Subthreshold Leakage with power gating = 0.00246675 W
                Gate Leakage = 0.00038992 W
                Runtime Dynamic = 0 W

          Instruction Scheduler:
            Area = 1.49901 mm^2
            Peak Dynamic = 3.31117 W
            Subthreshold Leakage = 0.0413754 W
            Subthreshold Leakage with power gating = 0.0222326 W
            Gate Leakage = 0.00244394 W
            Runtime Dynamic = 0 W

              Instruction Window:
                Area = 0.329703 mm^2
                Peak Dynamic = 0.542479 W
                Subthreshold Leakage = 0.006509 W
                Subthreshold Leakage with power gating = 0.00363852 W
                Gate Leakage = 0.000434043 W
                Runtime Dynamic = 0 W

              FP Instruction Window:
                Area = 0.328073 mm^2
                Peak Dynamic = 1.20978 W
                Subthreshold Leakage = 0.017004 W
                Subthreshold Leakage with power gating = 0.00962066 W
                Gate Leakage = 0.00115349 W
                Runtime Dynamic = 0 W

              ROB:
                Area = 0.841232 mm^2
                Peak Dynamic = 1.55892 W
                Subthreshold Leakage = 0.0178624 W
                Subthreshold Leakage with power gating = 0.00897339 W
                Gate Leakage = 0.000856399 W
                Runtime Dynamic = 0 W

          Integer ALUs (Count: 6 ):
            Area = 0.47087 mm^2
            Peak Dynamic = 0 W
            Subthreshold Leakage = 0.40222 W
            Subthreshold Leakage with power gating = 0.150833 W
            Gate Leakage = 0.0265291 W
            Runtime Dynamic = 0.101344 W

          Floating Point Units (FPUs) (Count: 2 ):
            Area = 4.6585 mm^2
            Peak Dynamic = 0 W
            Subthreshold Leakage = 0.994829 W
            Subthreshold Leakage with power gating = 0.373061 W
            Gate Leakage = 0.0656156 W
            Runtime Dynamic = 0.304033 W

          Complex ALUs (Mul/Div) (Count: 1 ):
            Area = 0.235435 mm^2
            Peak Dynamic = 0 W
            Subthreshold Leakage = 0.20111 W
            Subthreshold Leakage with power gating = 0.0754163 W
            Gate Leakage = 0.0132646 W
            Runtime Dynamic = 0.202689 W

          Results Broadcast Bus:
            Area Overhead = 0.0436135 mm^2
            Peak Dynamic = 0 W
            Subthreshold Leakage = 0.0911921 W
            Subthreshold Leakage with power gating = 0.034197 W
            Gate Leakage = 0.00601473 W
            Runtime Dynamic = 0 W

    L2
    Area = 4.53318 mm^2
    Peak Dynamic = 0 W
    Subthreshold Leakage = 0.834142 W
    Subthreshold Leakage with power gating = 0.401066 W
    Gate Leakage = 0.015464 W
    Runtime Dynamic = 8.09299e-10 W

*****************************************************************************************
Core:
      Area = 30.445 mm^2
      Peak Dynamic = 7.95441 W
      Subthreshold Leakage = 5.89985 W
      Subthreshold Leakage with power gating = 2.40096 W
      Gate Leakage = 0.350117 W
      Runtime Dynamic = 0.608066 W

      Instruction Fetch Unit:
        Area = 4.59444 mm^2
        Peak Dynamic = 2.21852 W
        Subthreshold Leakage = 0.751292 W
        Subthreshold Leakage with power gating = 0.305204 W
        Gate Leakage = 0.0470923 W
        Runtime Dynamic = 1.28396e-10 W

          Instruction Cache:
            Area = 1.88071 mm^2
            Peak Dynamic = 0 W
            Subthreshold Leakage = 0.185726 W
            Subthreshold Leakage with power gating = 0.0770478 W
            Gate Leakage = 0.0179754 W
            Runtime Dynamic = 0 W

          Branch Target Buffer:
            Area = 0.64954 mm^2
            Peak Dynamic = 0.177867 W
            Subthreshold Leakage = 0.0811682 W
            Subthreshold Leakage with power gating = 0.0435357 W
            Gate Leakage = 0.00272758 W
            Runtime Dynamic = 0 W

          Branch Predictor:
            Area = 0.138516 mm^2
            Peak Dynamic = 0.0597838 W
            Subthreshold Leakage = 0.0199703 W
            Subthreshold Leakage with power gating = 0.0103282 W
            Gate Leakage = 0.000757657 W
            Runtime Dynamic = 0 W

              Global Predictor:
                Area = 0.0435221 mm^2
                Peak Dynamic = 0.0168831 W
                Subthreshold Leakage = 0.00759719 W
                Subthreshold Leakage with power gating = 0.0039236 W
                Gate Leakage = 0.000278362 W
                Runtime Dynamic = 0 W

              Local Predictor:
              L1_Local Predictor:
                Area = 0.0257064 mm^2
                Peak Dynamic = 0.0142575 W
                Subthreshold Leakage = 0.00384344 W
                Subthreshold Leakage with power gating = 0.00198631 W
                Gate Leakage = 0.000154548 W
                Runtime Dynamic = 0 W

              L2_Local Predictor:
                Area = 0.0151917 mm^2
                Peak Dynamic = 0.00527447 W
                Subthreshold Leakage = 0.00181347 W
                Subthreshold Leakage with power gating = 0.000957045 W
                Gate Leakage = 8.00196e-05 W
                Runtime Dynamic = 0 W

              Chooser:
                Area = 0.0435221 mm^2
                Peak Dynamic = 0.0168831 W
                Subthreshold Leakage = 0.00759719 W
                Subthreshold Leakage with power gating = 0.0039236 W
                Gate Leakage = 0.000278362 W
                Runtime Dynamic = 0 W

              RAS:
                Area = 0.0105732 mm^2
                Peak Dynamic = 0.0117602 W
                Subthreshold Leakage = 0.000932505 W
                Subthreshold Leakage with power gating = 0.000494733 W
                Gate Leakage = 4.63858e-05 W
                Runtime Dynamic = 0 W

          Instruction Buffer:
            Area = 0.0226323 mm^2
            Peak Dynamic = 0.606827 W
            Subthreshold Leakage = 0.00151885 W
            Subthreshold Leakage with power gating = 0.000701682 W
            Gate Leakage = 6.83558e-05 W
            Runtime Dynamic = 0 W

          Instruction Decoder:
            Area = 1.85799 mm^2
            Peak Dynamic = 1.37404 W
            Subthreshold Leakage = 0.442943 W
            Subthreshold Leakage with power gating = 0.166104 W
            Gate Leakage = 0.0222493 W
            Runtime Dynamic = 0 W

      Renaming Unit:
        Area = 0.0865297 mm^2
        Peak Dynamic = 1.02911 W
        Subthreshold Leakage = 0.020636 W
        Subthreshold Leakage with power gating = 0.00786506 W
        Gate Leakage = 0.00335557 W
        Runtime Dynamic = 1.28396e-10 W

          Int Front End RAT:
            Area = 0 mm^2
            Peak Dynamic = 0.447984 W
            Subthreshold Leakage = 0 W
            Subthreshold Leakage with power gating = -nan W
            Gate Leakage = 0 W
            Runtime Dynamic = 0 W

          FP Front End RAT:
            Area = 0 mm^2
            Peak Dynamic = 0.223992 W
            Subthreshold Leakage = 0 W
            Subthreshold Leakage with power gating = -nan W
            Gate Leakage = 0 W
            Runtime Dynamic = 0 W

          Free List:
            Area = 0.0414755 mm^2
            Peak Dynamic = 0.0401324 W
            Subthreshold Leakage = 0.000670426 W
            Subthreshold Leakage with power gating = 0.000377987 W
            Gate Leakage = 4.15911e-05 W
            Runtime Dynamic = 0 W

      Load Store Unit:
        Area = 8.80969 mm^2
        Peak Dynamic = 1.23712 W
        Subthreshold Leakage = 0.591622 W
        Subthreshold Leakage with power gating = 0.283406 W
        Gate Leakage = 0.0351387 W
        Runtime Dynamic = 1.28396e-10 W

          Data Cache:
            Area = 6.84535 mm^2
            Peak Dynamic = 1.23712 W
            Subthreshold Leakage = 0.527675 W
            Subthreshold Leakage with power gating = 0.25085 W
            Gate Leakage = 0.0279261 W
            Runtime Dynamic = 0 W

          LoadQ:
            Area = 0.0836782 mm^2
            Peak Dynamic = 0 W
            Subthreshold Leakage = 0.00941961 W
            Subthreshold Leakage with power gating = 0.00536918 W
            Gate Leakage = 0.00059896 W
            Runtime Dynamic = 0 W

          StoreQ:
            Area = 0.322079 mm^2
            Peak Dynamic = 0 W
            Subthreshold Leakage = 0.0345621 W
            Subthreshold Leakage with power gating = 0.0197004 W
            Gate Leakage = 0.00329971 W
            Runtime Dynamic = 0 W

      Memory Management Unit:
        Area = 0.346606 mm^2
        Peak Dynamic = 0.158498 W
        Subthreshold Leakage = 0.0613414 W
        Subthreshold Leakage with power gating = 0.0310713 W
        Gate Leakage = 0.00724862 W
        Runtime Dynamic = 1.28396e-10 W

          Itlb:
            Area = 0.301552 mm^2
            Peak Dynamic = 0 W
            Subthreshold Leakage = 0.0413758 W
            Subthreshold Leakage with power gating = 0.0235842 W
            Gate Leakage = 0.00393464 W
            Runtime Dynamic = 0 W

          Dtlb:
            Area = 0 mm^2
            Peak Dynamic = 0 W
            Subthreshold Leakage = 0 W
            Subthreshold Leakage with power gating = -nan W
            Gate Leakage = 0 W
            Runtime Dynamic = 0 W

      Execution Unit:
        Area = 7.67783 mm^2
        Peak Dynamic = 3.31117 W
        Subthreshold Leakage = 1.76298 W
        Subthreshold Leakage with power gating = 0.66816 W
        Gate Leakage = 0.117962 W
        Runtime Dynamic = 0.608066 W

          Register Files:
            Area = 0.725346 mm^2
            Peak Dynamic = 0 W
            Subthreshold Leakage = 0.0122835 W
            Subthreshold Leakage with power gating = 0.00493351 W
            Gate Leakage = 0.00077984 W
            Runtime Dynamic = 0 W

              Integer RF:
                Area = 0.362673 mm^2
                Peak Dynamic = 0 W
                Subthreshold Leakage = 0.00614175 W
                Subthreshold Leakage with power gating = 0.00246675 W
                Gate Leakage = 0.00038992 W
                Runtime Dynamic = 0 W

              Floating Point RF:
                Area = 0.362673 mm^2
                Peak Dynamic = 0 W
                Subthreshold Leakage = 0.00614175 W
                Subthreshold Leakage with power gating = 0.00246675 W
                Gate Leakage = 0.00038992 W
                Runtime Dynamic = 0 W

          Instruction Scheduler:
            Area = 1.49901 mm^2
            Peak Dynamic = 3.31117 W
            Subthreshold Leakage = 0.0413754 W
            Subthreshold Leakage with power gating = 0.0222326 W
            Gate Leakage = 0.00244394 W
            Runtime Dynamic = 0 W

              Instruction Window:
                Area = 0.329703 mm^2
                Peak Dynamic = 0.542479 W
                Subthreshold Leakage = 0.006509 W
                Subthreshold Leakage with power gating = 0.00363852 W
                Gate Leakage = 0.000434043 W
                Runtime Dynamic = 0 W

              FP Instruction Window:
                Area = 0.328073 mm^2
                Peak Dynamic = 1.20978 W
                Subthreshold Leakage = 0.017004 W
                Subthreshold Leakage with power gating = 0.00962066 W
                Gate Leakage = 0.00115349 W
                Runtime Dynamic = 0 W

              ROB:
                Area = 0.841232 mm^2
                Peak Dynamic = 1.55892 W
                Subthreshold Leakage = 0.0178624 W
                Subthreshold Leakage with power gating = 0.00897339 W
                Gate Leakage = 0.000856399 W
                Runtime Dynamic = 0 W

          Integer ALUs (Count: 6 ):
            Area = 0.47087 mm^2
            Peak Dynamic = 0 W
            Subthreshold Leakage = 0.40222 W
            Subthreshold Leakage with power gating = 0.150833 W
            Gate Leakage = 0.0265291 W
            Runtime Dynamic = 0.101344 W

          Floating Point Units (FPUs) (Count: 2 ):
            Area = 4.6585 mm^2
            Peak Dynamic = 0 W
            Subthreshold Leakage = 0.994829 W
            Subthreshold Leakage with power gating = 0.373061 W
            Gate Leakage = 0.0656156 W
            Runtime Dynamic = 0.304033 W

          Complex ALUs (Mul/Div) (Count: 1 ):
            Area = 0.235435 mm^2
            Peak Dynamic = 0 W
            Subthreshold Leakage = 0.20111 W
            Subthreshold Leakage with power gating = 0.0754163 W
            Gate Leakage = 0.0132646 W
            Runtime Dynamic = 0.202689 W

          Results Broadcast Bus:
            Area Overhead = 0.0436135 mm^2
            Peak Dynamic = 0 W
            Subthreshold Leakage = 0.0911921 W
            Subthreshold Leakage with power gating = 0.034197 W
            Gate Leakage = 0.00601473 W
            Runtime Dynamic = 0 W

    L2
    Area = 4.53318 mm^2
    Peak Dynamic = 0 W
    Subthreshold Leakage = 0.834142 W
    Subthreshold Leakage with power gating = 0.401066 W
    Gate Leakage = 0.015464 W
    Runtime Dynamic = 8.09299e-10 W

*****************************************************************************************
Core:
      Area = 30.445 mm^2
      Peak Dynamic = 7.95441 W
      Subthreshold Leakage = 5.89985 W
      Subthreshold Leakage with power gating = 2.40096 W
      Gate Leakage = 0.350117 W
      Runtime Dynamic = 0.608066 W

      Instruction Fetch Unit:
        Area = 4.59444 mm^2
        Peak Dynamic = 2.21852 W
        Subthreshold Leakage = 0.751292 W
        Subthreshold Leakage with power gating = 0.305204 W
        Gate Leakage = 0.0470923 W
        Runtime Dynamic = 1.28396e-10 W

          Instruction Cache:
            Area = 1.88071 mm^2
            Peak Dynamic = 0 W
            Subthreshold Leakage = 0.185726 W
            Subthreshold Leakage with power gating = 0.0770478 W
            Gate Leakage = 0.0179754 W
            Runtime Dynamic = 0 W

          Branch Target Buffer:
            Area = 0.64954 mm^2
            Peak Dynamic = 0.177867 W
            Subthreshold Leakage = 0.0811682 W
            Subthreshold Leakage with power gating = 0.0435357 W
            Gate Leakage = 0.00272758 W
            Runtime Dynamic = 0 W

          Branch Predictor:
            Area = 0.138516 mm^2
            Peak Dynamic = 0.0597838 W
            Subthreshold Leakage = 0.0199703 W
            Subthreshold Leakage with power gating = 0.0103282 W
            Gate Leakage = 0.000757657 W
            Runtime Dynamic = 0 W

              Global Predictor:
                Area = 0.0435221 mm^2
                Peak Dynamic = 0.0168831 W
                Subthreshold Leakage = 0.00759719 W
                Subthreshold Leakage with power gating = 0.0039236 W
                Gate Leakage = 0.000278362 W
                Runtime Dynamic = 0 W

              Local Predictor:
              L1_Local Predictor:
                Area = 0.0257064 mm^2
                Peak Dynamic = 0.0142575 W
                Subthreshold Leakage = 0.00384344 W
                Subthreshold Leakage with power gating = 0.00198631 W
                Gate Leakage = 0.000154548 W
                Runtime Dynamic = 0 W

              L2_Local Predictor:
                Area = 0.0151917 mm^2
                Peak Dynamic = 0.00527447 W
                Subthreshold Leakage = 0.00181347 W
                Subthreshold Leakage with power gating = 0.000957045 W
                Gate Leakage = 8.00196e-05 W
                Runtime Dynamic = 0 W

              Chooser:
                Area = 0.0435221 mm^2
                Peak Dynamic = 0.0168831 W
                Subthreshold Leakage = 0.00759719 W
                Subthreshold Leakage with power gating = 0.0039236 W
                Gate Leakage = 0.000278362 W
                Runtime Dynamic = 0 W

              RAS:
                Area = 0.0105732 mm^2
                Peak Dynamic = 0.0117602 W
                Subthreshold Leakage = 0.000932505 W
                Subthreshold Leakage with power gating = 0.000494733 W
                Gate Leakage = 4.63858e-05 W
                Runtime Dynamic = 0 W

          Instruction Buffer:
            Area = 0.0226323 mm^2
            Peak Dynamic = 0.606827 W
            Subthreshold Leakage = 0.00151885 W
            Subthreshold Leakage with power gating = 0.000701682 W
            Gate Leakage = 6.83558e-05 W
            Runtime Dynamic = 0 W

          Instruction Decoder:
            Area = 1.85799 mm^2
            Peak Dynamic = 1.37404 W
            Subthreshold Leakage = 0.442943 W
            Subthreshold Leakage with power gating = 0.166104 W
            Gate Leakage = 0.0222493 W
            Runtime Dynamic = 0 W

      Renaming Unit:
        Area = 0.0865297 mm^2
        Peak Dynamic = 1.02911 W
        Subthreshold Leakage = 0.020636 W
        Subthreshold Leakage with power gating = 0.00786506 W
        Gate Leakage = 0.00335557 W
        Runtime Dynamic = 1.28396e-10 W

          Int Front End RAT:
            Area = 0 mm^2
            Peak Dynamic = 0.447984 W
            Subthreshold Leakage = 0 W
            Subthreshold Leakage with power gating = -nan W
            Gate Leakage = 0 W
            Runtime Dynamic = 0 W

          FP Front End RAT:
            Area = 0 mm^2
            Peak Dynamic = 0.223992 W
            Subthreshold Leakage = 0 W
            Subthreshold Leakage with power gating = -nan W
            Gate Leakage = 0 W
            Runtime Dynamic = 0 W

          Free List:
            Area = 0.0414755 mm^2
            Peak Dynamic = 0.0401324 W
            Subthreshold Leakage = 0.000670426 W
            Subthreshold Leakage with power gating = 0.000377987 W
            Gate Leakage = 4.15911e-05 W
            Runtime Dynamic = 0 W

      Load Store Unit:
        Area = 8.80969 mm^2
        Peak Dynamic = 1.23712 W
        Subthreshold Leakage = 0.591622 W
        Subthreshold Leakage with power gating = 0.283406 W
        Gate Leakage = 0.0351387 W
        Runtime Dynamic = 1.28396e-10 W

          Data Cache:
            Area = 6.84535 mm^2
            Peak Dynamic = 1.23712 W
            Subthreshold Leakage = 0.527675 W
            Subthreshold Leakage with power gating = 0.25085 W
            Gate Leakage = 0.0279261 W
            Runtime Dynamic = 0 W

          LoadQ:
            Area = 0.0836782 mm^2
            Peak Dynamic = 0 W
            Subthreshold Leakage = 0.00941961 W
            Subthreshold Leakage with power gating = 0.00536918 W
            Gate Leakage = 0.00059896 W
            Runtime Dynamic = 0 W

          StoreQ:
            Area = 0.322079 mm^2
            Peak Dynamic = 0 W
            Subthreshold Leakage = 0.0345621 W
            Subthreshold Leakage with power gating = 0.0197004 W
            Gate Leakage = 0.00329971 W
            Runtime Dynamic = 0 W

      Memory Management Unit:
        Area = 0.346606 mm^2
        Peak Dynamic = 0.158498 W
        Subthreshold Leakage = 0.0613414 W
        Subthreshold Leakage with power gating = 0.0310713 W
        Gate Leakage = 0.00724862 W
        Runtime Dynamic = 1.28396e-10 W

          Itlb:
            Area = 0.301552 mm^2
            Peak Dynamic = 0 W
            Subthreshold Leakage = 0.0413758 W
            Subthreshold Leakage with power gating = 0.0235842 W
            Gate Leakage = 0.00393464 W
            Runtime Dynamic = 0 W

          Dtlb:
            Area = 0 mm^2
            Peak Dynamic = 0 W
            Subthreshold Leakage = 0 W
            Subthreshold Leakage with power gating = -nan W
            Gate Leakage = 0 W
            Runtime Dynamic = 0 W

      Execution Unit:
        Area = 7.67783 mm^2
        Peak Dynamic = 3.31117 W
        Subthreshold Leakage = 1.76298 W
        Subthreshold Leakage with power gating = 0.66816 W
        Gate Leakage = 0.117962 W
        Runtime Dynamic = 0.608066 W

          Register Files:
            Area = 0.725346 mm^2
            Peak Dynamic = 0 W
            Subthreshold Leakage = 0.0122835 W
            Subthreshold Leakage with power gating = 0.00493351 W
            Gate Leakage = 0.00077984 W
            Runtime Dynamic = 0 W

              Integer RF:
                Area = 0.362673 mm^2
                Peak Dynamic = 0 W
                Subthreshold Leakage = 0.00614175 W
                Subthreshold Leakage with power gating = 0.00246675 W
                Gate Leakage = 0.00038992 W
                Runtime Dynamic = 0 W

              Floating Point RF:
                Area = 0.362673 mm^2
                Peak Dynamic = 0 W
                Subthreshold Leakage = 0.00614175 W
                Subthreshold Leakage with power gating = 0.00246675 W
                Gate Leakage = 0.00038992 W
                Runtime Dynamic = 0 W

          Instruction Scheduler:
            Area = 1.49901 mm^2
            Peak Dynamic = 3.31117 W
            Subthreshold Leakage = 0.0413754 W
            Subthreshold Leakage with power gating = 0.0222326 W
            Gate Leakage = 0.00244394 W
            Runtime Dynamic = 0 W

              Instruction Window:
                Area = 0.329703 mm^2
                Peak Dynamic = 0.542479 W
                Subthreshold Leakage = 0.006509 W
                Subthreshold Leakage with power gating = 0.00363852 W
                Gate Leakage = 0.000434043 W
                Runtime Dynamic = 0 W

              FP Instruction Window:
                Area = 0.328073 mm^2
                Peak Dynamic = 1.20978 W
                Subthreshold Leakage = 0.017004 W
                Subthreshold Leakage with power gating = 0.00962066 W
                Gate Leakage = 0.00115349 W
                Runtime Dynamic = 0 W

              ROB:
                Area = 0.841232 mm^2
                Peak Dynamic = 1.55892 W
                Subthreshold Leakage = 0.0178624 W
                Subthreshold Leakage with power gating = 0.00897339 W
                Gate Leakage = 0.000856399 W
                Runtime Dynamic = 0 W

          Integer ALUs (Count: 6 ):
            Area = 0.47087 mm^2
            Peak Dynamic = 0 W
            Subthreshold Leakage = 0.40222 W
            Subthreshold Leakage with power gating = 0.150833 W
            Gate Leakage = 0.0265291 W
            Runtime Dynamic = 0.101344 W

          Floating Point Units (FPUs) (Count: 2 ):
            Area = 4.6585 mm^2
            Peak Dynamic = 0 W
            Subthreshold Leakage = 0.994829 W
            Subthreshold Leakage with power gating = 0.373061 W
            Gate Leakage = 0.0656156 W
            Runtime Dynamic = 0.304033 W

          Complex ALUs (Mul/Div) (Count: 1 ):
            Area = 0.235435 mm^2
            Peak Dynamic = 0 W
            Subthreshold Leakage = 0.20111 W
            Subthreshold Leakage with power gating = 0.0754163 W
            Gate Leakage = 0.0132646 W
            Runtime Dynamic = 0.202689 W

          Results Broadcast Bus:
            Area Overhead = 0.0436135 mm^2
            Peak Dynamic = 0 W
            Subthreshold Leakage = 0.0911921 W
            Subthreshold Leakage with power gating = 0.034197 W
            Gate Leakage = 0.00601473 W
            Runtime Dynamic = 0 W

    L2
    Area = 4.53318 mm^2
    Peak Dynamic = 0 W
    Subthreshold Leakage = 0.834142 W
    Subthreshold Leakage with power gating = 0.401066 W
    Gate Leakage = 0.015464 W
    Runtime Dynamic = 8.09299e-10 W

*****************************************************************************************
      L3
      Area = 61.9075 mm^2
      Peak Dynamic = 0.00020693 W
      Subthreshold Leakage = 6.80085 W
      Subthreshold Leakage with power gating = 3.32364 W
      Gate Leakage = 0.0484137 W
      Runtime Dynamic = 0.000172608 W

*****************************************************************************************
      L3
      Area = 61.9075 mm^2
      Peak Dynamic = 0 W
      Subthreshold Leakage = 6.80085 W
      Subthreshold Leakage with power gating = 3.32364 W
      Gate Leakage = 0.0484137 W
      Runtime Dynamic = 8.11783e-10 W

*****************************************************************************************
BUSES
      Area = 3.61971 mm^2
      Peak Dynamic = 0.00123779 W
      Subthreshold Leakage = 0.101262 W
      Subthreshold Leakage with power gating = 0.0379732 W
      Gate Leakage = 0.00971065 W
      Runtime Dynamic = 0.000135258 W

      Bus: 
        Area = 3.61971 mm^2
        Peak Dynamic = 0.00123779 W
        Subthreshold Leakage = 0.101262 W
        Subthreshold Leakage with power gating = 0.0379732 W
        Gate Leakage = 0.00971065 W
        Runtime Dynamic = 0.000135258 W

*****************************************************************************************
