McPAT (version 1.0 of Aug, 2013) is computing the target processor...
 

McPAT (version 1.0 of Aug, 2013) results  (current print level is 5)
*****************************************************************************************
  Technology 45 nm
  Using Long Channel Devices When Appropriate
  Interconnect metal projection= aggressive interconnect technology projection
  Core clock Rate(MHz) 2660

*****************************************************************************************
Processor: 
  Area = 370.995 mm^2
  Peak Power = 141.013 W
  Total Leakage = 63.8093 W
  Peak Dynamic = 77.2039 W
  Subthreshold Leakage = 60.9018 W
  Subthreshold Leakage with power gating = 26.6652 W
  Gate Leakage = 2.90748 W
  Runtime Dynamic = 16.5042 W

  Total Cores: 8 cores 
  Device Type= ITRS high performance device type
    Area = 243.56 mm^2
    Peak Dynamic = 77.2019 W
    Subthreshold Leakage = 47.1988 W
    Subthreshold Leakage with power gating = 19.2077 W
    Gate Leakage = 2.80094 W
    Runtime Dynamic = 16.5038 W

  Total L3s: 
  Device Type= ITRS high performance device type
    Area = 123.815 mm^2
    Peak Dynamic = 0.000294059 W
    Subthreshold Leakage = 13.6017 W
    Subthreshold Leakage with power gating = 6.64728 W
    Gate Leakage = 0.0968273 W
    Runtime Dynamic = 0.000228767 W

  Total NoCs (Network/Bus): 
  Device Type= ITRS high performance device type
    Area = 3.61971 mm^2
    Peak Dynamic = 0.00175747 W
    Subthreshold Leakage = 0.101262 W
    Subthreshold Leakage with power gating = 0.0379732 W
    Gate Leakage = 0.00971065 W
    Runtime Dynamic = 0.000195127 W

*****************************************************************************************
Core:
      Area = 30.445 mm^2
      Peak Dynamic = 21.5123 W
      Subthreshold Leakage = 5.89985 W
      Subthreshold Leakage with power gating = 2.40096 W
      Gate Leakage = 0.350117 W
      Runtime Dynamic = 12.2413 W

      Instruction Fetch Unit:
        Area = 4.59444 mm^2
        Peak Dynamic = 4.9755 W
        Subthreshold Leakage = 0.751292 W
        Subthreshold Leakage with power gating = 0.305204 W
        Gate Leakage = 0.0470923 W
        Runtime Dynamic = 1.69022 W

          Instruction Cache:
            Area = 1.88071 mm^2
            Peak Dynamic = 2.43999 W
            Subthreshold Leakage = 0.185726 W
            Subthreshold Leakage with power gating = 0.0770478 W
            Gate Leakage = 0.0179754 W
            Runtime Dynamic = 0.849452 W

          Branch Target Buffer:
            Area = 0.64954 mm^2
            Peak Dynamic = 0.177867 W
            Subthreshold Leakage = 0.0811682 W
            Subthreshold Leakage with power gating = 0.0435357 W
            Gate Leakage = 0.00272758 W
            Runtime Dynamic = 0.0599193 W

          Branch Predictor:
            Area = 0.138516 mm^2
            Peak Dynamic = 0.0597838 W
            Subthreshold Leakage = 0.0199703 W
            Subthreshold Leakage with power gating = 0.0103282 W
            Gate Leakage = 0.000757657 W
            Runtime Dynamic = 0.0201442 W

              Global Predictor:
                Area = 0.0435221 mm^2
                Peak Dynamic = 0.0168831 W
                Subthreshold Leakage = 0.00759719 W
                Subthreshold Leakage with power gating = 0.0039236 W
                Gate Leakage = 0.000278362 W
                Runtime Dynamic = 0.00612731 W

              Local Predictor:
              L1_Local Predictor:
                Area = 0.0257064 mm^2
                Peak Dynamic = 0.0142575 W
                Subthreshold Leakage = 0.00384344 W
                Subthreshold Leakage with power gating = 0.00198631 W
                Gate Leakage = 0.000154548 W
                Runtime Dynamic = 0.00530409 W

              L2_Local Predictor:
                Area = 0.0151917 mm^2
                Peak Dynamic = 0.00527447 W
                Subthreshold Leakage = 0.00181347 W
                Subthreshold Leakage with power gating = 0.000957045 W
                Gate Leakage = 8.00196e-05 W
                Runtime Dynamic = 0.00203537 W

              Chooser:
                Area = 0.0435221 mm^2
                Peak Dynamic = 0.0168831 W
                Subthreshold Leakage = 0.00759719 W
                Subthreshold Leakage with power gating = 0.0039236 W
                Gate Leakage = 0.000278362 W
                Runtime Dynamic = 0.00612731 W

              RAS:
                Area = 0.0105732 mm^2
                Peak Dynamic = 0.0117602 W
                Subthreshold Leakage = 0.000932505 W
                Subthreshold Leakage with power gating = 0.000494733 W
                Gate Leakage = 4.63858e-05 W
                Runtime Dynamic = 0.00258553 W

          Instruction Buffer:
            Area = 0.0226323 mm^2
            Peak Dynamic = 0.606827 W
            Subthreshold Leakage = 0.00151885 W
            Subthreshold Leakage with power gating = 0.000701682 W
            Gate Leakage = 6.83558e-05 W
            Runtime Dynamic = 0.173026 W

          Instruction Decoder:
            Area = 1.85799 mm^2
            Peak Dynamic = 1.37404 W
            Subthreshold Leakage = 0.442943 W
            Subthreshold Leakage with power gating = 0.166104 W
            Gate Leakage = 0.0222493 W
            Runtime Dynamic = 0.587675 W

      Renaming Unit:
        Area = 0.0865297 mm^2
        Peak Dynamic = 1.02911 W
        Subthreshold Leakage = 0.020636 W
        Subthreshold Leakage with power gating = 0.00786506 W
        Gate Leakage = 0.00335557 W
        Runtime Dynamic = 0.22595 W

          Int Front End RAT:
            Area = 0 mm^2
            Peak Dynamic = 0.447984 W
            Subthreshold Leakage = 0 W
            Subthreshold Leakage with power gating = -nan W
            Gate Leakage = 0 W
            Runtime Dynamic = 0.191603 W

          FP Front End RAT:
            Area = 0 mm^2
            Peak Dynamic = 0.223992 W
            Subthreshold Leakage = 0 W
            Subthreshold Leakage with power gating = -nan W
            Gate Leakage = 0 W
            Runtime Dynamic = 1.48801e-05 W

          Free List:
            Area = 0.0414755 mm^2
            Peak Dynamic = 0.0401324 W
            Subthreshold Leakage = 0.000670426 W
            Subthreshold Leakage with power gating = 0.000377987 W
            Gate Leakage = 4.15911e-05 W
            Runtime Dynamic = 0.0343319 W

      Load Store Unit:
        Area = 8.80969 mm^2
        Peak Dynamic = 10.0966 W
        Subthreshold Leakage = 0.591622 W
        Subthreshold Leakage with power gating = 0.283406 W
        Gate Leakage = 0.0351387 W
        Runtime Dynamic = 5.88816 W

          Data Cache:
            Area = 6.84535 mm^2
            Peak Dynamic = 8.91832 W
            Subthreshold Leakage = 0.527675 W
            Subthreshold Leakage with power gating = 0.25085 W
            Gate Leakage = 0.0279261 W
            Runtime Dynamic = 4.20633 W

          LoadQ:
            Area = 0.0836782 mm^2
            Peak Dynamic = 0.248505 W
            Subthreshold Leakage = 0.00941961 W
            Subthreshold Leakage with power gating = 0.00536918 W
            Gate Leakage = 0.00059896 W
            Runtime Dynamic = 0.283534 W

          StoreQ:
            Area = 0.322079 mm^2
            Peak Dynamic = 0.612772 W
            Subthreshold Leakage = 0.0345621 W
            Subthreshold Leakage with power gating = 0.0197004 W
            Gate Leakage = 0.00329971 W
            Runtime Dynamic = 1.39829 W

      Memory Management Unit:
        Area = 0.346606 mm^2
        Peak Dynamic = 0.716991 W
        Subthreshold Leakage = 0.0613414 W
        Subthreshold Leakage with power gating = 0.0310713 W
        Gate Leakage = 0.00724862 W
        Runtime Dynamic = 0.141136 W

          Itlb:
            Area = 0.301552 mm^2
            Peak Dynamic = 0.399995 W
            Subthreshold Leakage = 0.0413758 W
            Subthreshold Leakage with power gating = 0.0235842 W
            Gate Leakage = 0.00393464 W
            Runtime Dynamic = 0.141136 W

          Dtlb:
            Area = 0 mm^2
            Peak Dynamic = 0 W
            Subthreshold Leakage = 0 W
            Subthreshold Leakage with power gating = -nan W
            Gate Leakage = 0 W
            Runtime Dynamic = 0 W

      Execution Unit:
        Area = 7.67783 mm^2
        Peak Dynamic = 4.65145 W
        Subthreshold Leakage = 1.76298 W
        Subthreshold Leakage with power gating = 0.66816 W
        Gate Leakage = 0.117962 W
        Runtime Dynamic = 4.28681 W

          Register Files:
            Area = 0.725346 mm^2
            Peak Dynamic = 0.176127 W
            Subthreshold Leakage = 0.0122835 W
            Subthreshold Leakage with power gating = 0.00493351 W
            Gate Leakage = 0.00077984 W
            Runtime Dynamic = 0.209985 W

              Integer RF:
                Area = 0.362673 mm^2
                Peak Dynamic = 0.176049 W
                Subthreshold Leakage = 0.00614175 W
                Subthreshold Leakage with power gating = 0.00246675 W
                Gate Leakage = 0.00038992 W
                Runtime Dynamic = 0.179987 W

              Floating Point RF:
                Area = 0.362673 mm^2
                Peak Dynamic = 7.83579e-05 W
                Subthreshold Leakage = 0.00614175 W
                Subthreshold Leakage with power gating = 0.00246675 W
                Gate Leakage = 0.00038992 W
                Runtime Dynamic = 0.0299979 W

          Instruction Scheduler:
            Area = 1.49901 mm^2
            Peak Dynamic = 3.31117 W
            Subthreshold Leakage = 0.0413754 W
            Subthreshold Leakage with power gating = 0.0222326 W
            Gate Leakage = 0.00244394 W
            Runtime Dynamic = 1.676 W

              Instruction Window:
                Area = 0.329703 mm^2
                Peak Dynamic = 0.542479 W
                Subthreshold Leakage = 0.006509 W
                Subthreshold Leakage with power gating = 0.00363852 W
                Gate Leakage = 0.000434043 W
                Runtime Dynamic = 0.232018 W

              FP Instruction Window:
                Area = 0.328073 mm^2
                Peak Dynamic = 1.20978 W
                Subthreshold Leakage = 0.017004 W
                Subthreshold Leakage with power gating = 0.00962066 W
                Gate Leakage = 0.00115349 W
                Runtime Dynamic = 0.671352 W

              ROB:
                Area = 0.841232 mm^2
                Peak Dynamic = 1.55892 W
                Subthreshold Leakage = 0.0178624 W
                Subthreshold Leakage with power gating = 0.00897339 W
                Gate Leakage = 0.000856399 W
                Runtime Dynamic = 0.772631 W

          Integer ALUs (Count: 6 ):
            Area = 0.47087 mm^2
            Peak Dynamic = 0.663552 W
            Subthreshold Leakage = 0.40222 W
            Subthreshold Leakage with power gating = 0.150833 W
            Gate Leakage = 0.0265291 W
            Runtime Dynamic = 0.711815 W

          Floating Point Units (FPUs) (Count: 2 ):
            Area = 4.6585 mm^2
            Peak Dynamic = 0.000336495 W
            Subthreshold Leakage = 0.994829 W
            Subthreshold Leakage with power gating = 0.373061 W
            Gate Leakage = 0.0656156 W
            Runtime Dynamic = 0.304181 W

          Complex ALUs (Mul/Div) (Count: 1 ):
            Area = 0.235435 mm^2
            Peak Dynamic = 0.000125644 W
            Subthreshold Leakage = 0.20111 W
            Subthreshold Leakage with power gating = 0.0754163 W
            Gate Leakage = 0.0132646 W
            Runtime Dynamic = 0.202787 W

          Results Broadcast Bus:
            Area Overhead = 0.0436135 mm^2
            Peak Dynamic = 0.409753 W
            Subthreshold Leakage = 0.0911921 W
            Subthreshold Leakage with power gating = 0.034197 W
            Gate Leakage = 0.00601473 W
            Runtime Dynamic = 1.18204 W

    L2
    Area = 4.53318 mm^2
    Peak Dynamic = 0.0426229 W
    Subthreshold Leakage = 0.834142 W
    Subthreshold Leakage with power gating = 0.401066 W
    Gate Leakage = 0.015464 W
    Runtime Dynamic = 0.0089795 W

*****************************************************************************************
Core:
      Area = 30.445 mm^2
      Peak Dynamic = 7.95508 W
      Subthreshold Leakage = 5.89985 W
      Subthreshold Leakage with power gating = 2.40096 W
      Gate Leakage = 0.350117 W
      Runtime Dynamic = 0.608525 W

      Instruction Fetch Unit:
        Area = 4.59444 mm^2
        Peak Dynamic = 2.21877 W
        Subthreshold Leakage = 0.751292 W
        Subthreshold Leakage with power gating = 0.305204 W
        Gate Leakage = 0.0470923 W
        Runtime Dynamic = 7.31431e-05 W

          Instruction Cache:
            Area = 1.88071 mm^2
            Peak Dynamic = 0.000226919 W
            Subthreshold Leakage = 0.185726 W
            Subthreshold Leakage with power gating = 0.0770478 W
            Gate Leakage = 0.0179754 W
            Runtime Dynamic = 2.83284e-05 W

          Branch Target Buffer:
            Area = 0.64954 mm^2
            Peak Dynamic = 0.177867 W
            Subthreshold Leakage = 0.0811682 W
            Subthreshold Leakage with power gating = 0.0435357 W
            Gate Leakage = 0.00272758 W
            Runtime Dynamic = 2.64365e-06 W

          Branch Predictor:
            Area = 0.138516 mm^2
            Peak Dynamic = 0.0597838 W
            Subthreshold Leakage = 0.0199703 W
            Subthreshold Leakage with power gating = 0.0103282 W
            Gate Leakage = 0.000757657 W
            Runtime Dynamic = 9.48403e-07 W

              Global Predictor:
                Area = 0.0435221 mm^2
                Peak Dynamic = 0.0168831 W
                Subthreshold Leakage = 0.00759719 W
                Subthreshold Leakage with power gating = 0.0039236 W
                Gate Leakage = 0.000278362 W
                Runtime Dynamic = 2.81042e-07 W

              Local Predictor:
              L1_Local Predictor:
                Area = 0.0257064 mm^2
                Peak Dynamic = 0.0142575 W
                Subthreshold Leakage = 0.00384344 W
                Subthreshold Leakage with power gating = 0.00198631 W
                Gate Leakage = 0.000154548 W
                Runtime Dynamic = 2.46213e-07 W

              L2_Local Predictor:
                Area = 0.0151917 mm^2
                Peak Dynamic = 0.00527447 W
                Subthreshold Leakage = 0.00181347 W
                Subthreshold Leakage with power gating = 0.000957045 W
                Gate Leakage = 8.00196e-05 W
                Runtime Dynamic = 9.60932e-08 W

              Chooser:
                Area = 0.0435221 mm^2
                Peak Dynamic = 0.0168831 W
                Subthreshold Leakage = 0.00759719 W
                Subthreshold Leakage with power gating = 0.0039236 W
                Gate Leakage = 0.000278362 W
                Runtime Dynamic = 2.81042e-07 W

              RAS:
                Area = 0.0105732 mm^2
                Peak Dynamic = 0.0117602 W
                Subthreshold Leakage = 0.000932505 W
                Subthreshold Leakage with power gating = 0.000494733 W
                Gate Leakage = 4.63858e-05 W
                Runtime Dynamic = 1.40106e-07 W

          Instruction Buffer:
            Area = 0.0226323 mm^2
            Peak Dynamic = 0.606827 W
            Subthreshold Leakage = 0.00151885 W
            Subthreshold Leakage with power gating = 0.000701682 W
            Gate Leakage = 6.83558e-05 W
            Runtime Dynamic = 9.37633e-06 W

          Instruction Decoder:
            Area = 1.85799 mm^2
            Peak Dynamic = 1.37404 W
            Subthreshold Leakage = 0.442943 W
            Subthreshold Leakage with power gating = 0.166104 W
            Gate Leakage = 0.0222493 W
            Runtime Dynamic = 3.18462e-05 W

      Renaming Unit:
        Area = 0.0865297 mm^2
        Peak Dynamic = 1.02911 W
        Subthreshold Leakage = 0.020636 W
        Subthreshold Leakage with power gating = 0.00786506 W
        Gate Leakage = 0.00335557 W
        Runtime Dynamic = 1.22434e-05 W

          Int Front End RAT:
            Area = 0 mm^2
            Peak Dynamic = 0.447984 W
            Subthreshold Leakage = 0 W
            Subthreshold Leakage with power gating = -nan W
            Gate Leakage = 0 W
            Runtime Dynamic = 1.0383e-05 W

          FP Front End RAT:
            Area = 0 mm^2
            Peak Dynamic = 0.223992 W
            Subthreshold Leakage = 0 W
            Subthreshold Leakage with power gating = -nan W
            Gate Leakage = 0 W
            Runtime Dynamic = 0 W

          Free List:
            Area = 0.0414755 mm^2
            Peak Dynamic = 0.0401324 W
            Subthreshold Leakage = 0.000670426 W
            Subthreshold Leakage with power gating = 0.000377987 W
            Gate Leakage = 4.15911e-05 W
            Runtime Dynamic = 1.86031e-06 W

      Load Store Unit:
        Area = 8.80969 mm^2
        Peak Dynamic = 1.2374 W
        Subthreshold Leakage = 0.591622 W
        Subthreshold Leakage with power gating = 0.283406 W
        Gate Leakage = 0.0351387 W
        Runtime Dynamic = 0.000169994 W

          Data Cache:
            Area = 6.84535 mm^2
            Peak Dynamic = 1.23737 W
            Subthreshold Leakage = 0.527675 W
            Subthreshold Leakage with power gating = 0.25085 W
            Gate Leakage = 0.0279261 W
            Runtime Dynamic = 0.000122529 W

          LoadQ:
            Area = 0.0836782 mm^2
            Peak Dynamic = 7.95217e-06 W
            Subthreshold Leakage = 0.00941961 W
            Subthreshold Leakage with power gating = 0.00536918 W
            Gate Leakage = 0.00059896 W
            Runtime Dynamic = 8.00185e-06 W

          StoreQ:
            Area = 0.322079 mm^2
            Peak Dynamic = 1.96087e-05 W
            Subthreshold Leakage = 0.0345621 W
            Subthreshold Leakage with power gating = 0.0197004 W
            Gate Leakage = 0.00329971 W
            Runtime Dynamic = 3.94624e-05 W

      Memory Management Unit:
        Area = 0.346606 mm^2
        Peak Dynamic = 0.15854 W
        Subthreshold Leakage = 0.0613414 W
        Subthreshold Leakage with power gating = 0.0310713 W
        Gate Leakage = 0.00724862 W
        Runtime Dynamic = 4.77706e-06 W

          Itlb:
            Area = 0.301552 mm^2
            Peak Dynamic = 3.71995e-05 W
            Subthreshold Leakage = 0.0413758 W
            Subthreshold Leakage with power gating = 0.0235842 W
            Gate Leakage = 0.00393464 W
            Runtime Dynamic = 4.77693e-06 W

          Dtlb:
            Area = 0 mm^2
            Peak Dynamic = 0 W
            Subthreshold Leakage = 0 W
            Subthreshold Leakage with power gating = -nan W
            Gate Leakage = 0 W
            Runtime Dynamic = 0 W

      Execution Unit:
        Area = 7.67783 mm^2
        Peak Dynamic = 3.31124 W
        Subthreshold Leakage = 1.76298 W
        Subthreshold Leakage with power gating = 0.66816 W
        Gate Leakage = 0.117962 W
        Runtime Dynamic = 0.608263 W

          Register Files:
            Area = 0.725346 mm^2
            Peak Dynamic = 9.25818e-06 W
            Subthreshold Leakage = 0.0122835 W
            Subthreshold Leakage with power gating = 0.00493351 W
            Gate Leakage = 0.00077984 W
            Runtime Dynamic = 1.13791e-05 W

              Integer RF:
                Area = 0.362673 mm^2
                Peak Dynamic = 9.25818e-06 W
                Subthreshold Leakage = 0.00614175 W
                Subthreshold Leakage with power gating = 0.00246675 W
                Gate Leakage = 0.00038992 W
                Runtime Dynamic = 9.75355e-06 W

              Floating Point RF:
                Area = 0.362673 mm^2
                Peak Dynamic = 0 W
                Subthreshold Leakage = 0.00614175 W
                Subthreshold Leakage with power gating = 0.00246675 W
                Gate Leakage = 0.00038992 W
                Runtime Dynamic = 1.62559e-06 W

          Instruction Scheduler:
            Area = 1.49901 mm^2
            Peak Dynamic = 3.31117 W
            Subthreshold Leakage = 0.0413754 W
            Subthreshold Leakage with power gating = 0.0222326 W
            Gate Leakage = 0.00244394 W
            Runtime Dynamic = 8.91903e-05 W

              Instruction Window:
                Area = 0.329703 mm^2
                Peak Dynamic = 0.542479 W
                Subthreshold Leakage = 0.006509 W
                Subthreshold Leakage with power gating = 0.00363852 W
                Gate Leakage = 0.000434043 W
                Runtime Dynamic = 1.25731e-05 W

              FP Instruction Window:
                Area = 0.328073 mm^2
                Peak Dynamic = 1.20978 W
                Subthreshold Leakage = 0.017004 W
                Subthreshold Leakage with power gating = 0.00962066 W
                Gate Leakage = 0.00115349 W
                Runtime Dynamic = 3.63807e-05 W

              ROB:
                Area = 0.841232 mm^2
                Peak Dynamic = 1.55892 W
                Subthreshold Leakage = 0.0178624 W
                Subthreshold Leakage with power gating = 0.00897339 W
                Gate Leakage = 0.000856399 W
                Runtime Dynamic = 4.02365e-05 W

          Integer ALUs (Count: 6 ):
            Area = 0.47087 mm^2
            Peak Dynamic = 3.49102e-05 W
            Subthreshold Leakage = 0.40222 W
            Subthreshold Leakage with power gating = 0.150833 W
            Gate Leakage = 0.0265291 W
            Runtime Dynamic = 0.101377 W

          Floating Point Units (FPUs) (Count: 2 ):
            Area = 4.6585 mm^2
            Peak Dynamic = 0 W
            Subthreshold Leakage = 0.994829 W
            Subthreshold Leakage with power gating = 0.373061 W
            Gate Leakage = 0.0656156 W
            Runtime Dynamic = 0.304033 W

          Complex ALUs (Mul/Div) (Count: 1 ):
            Area = 0.235435 mm^2
            Peak Dynamic = 0 W
            Subthreshold Leakage = 0.20111 W
            Subthreshold Leakage with power gating = 0.0754163 W
            Gate Leakage = 0.0132646 W
            Runtime Dynamic = 0.202689 W

          Results Broadcast Bus:
            Area Overhead = 0.0436135 mm^2
            Peak Dynamic = 2.15467e-05 W
            Subthreshold Leakage = 0.0911921 W
            Subthreshold Leakage with power gating = 0.034197 W
            Gate Leakage = 0.00601473 W
            Runtime Dynamic = 6.34757e-05 W

    L2
    Area = 4.53318 mm^2
    Peak Dynamic = 1.01786e-05 W
    Subthreshold Leakage = 0.834142 W
    Subthreshold Leakage with power gating = 0.401066 W
    Gate Leakage = 0.015464 W
    Runtime Dynamic = 2.45641e-06 W

*****************************************************************************************
Core:
      Area = 30.445 mm^2
      Peak Dynamic = 7.95551 W
      Subthreshold Leakage = 5.89985 W
      Subthreshold Leakage with power gating = 2.40096 W
      Gate Leakage = 0.350117 W
      Runtime Dynamic = 0.608832 W

      Instruction Fetch Unit:
        Area = 4.59444 mm^2
        Peak Dynamic = 2.21894 W
        Subthreshold Leakage = 0.751292 W
        Subthreshold Leakage with power gating = 0.305204 W
        Gate Leakage = 0.0470923 W
        Runtime Dynamic = 0.000124544 W

          Instruction Cache:
            Area = 1.88071 mm^2
            Peak Dynamic = 0.000375758 W
            Subthreshold Leakage = 0.185726 W
            Subthreshold Leakage with power gating = 0.0770478 W
            Gate Leakage = 0.0179754 W
            Runtime Dynamic = 4.96513e-05 W

          Branch Target Buffer:
            Area = 0.64954 mm^2
            Peak Dynamic = 0.177867 W
            Subthreshold Leakage = 0.0811682 W
            Subthreshold Leakage with power gating = 0.0435357 W
            Gate Leakage = 0.00272758 W
            Runtime Dynamic = 4.58155e-06 W

          Branch Predictor:
            Area = 0.138516 mm^2
            Peak Dynamic = 0.0597838 W
            Subthreshold Leakage = 0.0199703 W
            Subthreshold Leakage with power gating = 0.0103282 W
            Gate Leakage = 0.000757657 W
            Runtime Dynamic = 1.62254e-06 W

              Global Predictor:
                Area = 0.0435221 mm^2
                Peak Dynamic = 0.0168831 W
                Subthreshold Leakage = 0.00759719 W
                Subthreshold Leakage with power gating = 0.0039236 W
                Gate Leakage = 0.000278362 W
                Runtime Dynamic = 4.8332e-07 W

              Local Predictor:
              L1_Local Predictor:
                Area = 0.0257064 mm^2
                Peak Dynamic = 0.0142575 W
                Subthreshold Leakage = 0.00384344 W
                Subthreshold Leakage with power gating = 0.00198631 W
                Gate Leakage = 0.000154548 W
                Runtime Dynamic = 4.2244e-07 W

              L2_Local Predictor:
                Area = 0.0151917 mm^2
                Peak Dynamic = 0.00527447 W
                Subthreshold Leakage = 0.00181347 W
                Subthreshold Leakage with power gating = 0.000957045 W
                Gate Leakage = 8.00196e-05 W
                Runtime Dynamic = 1.64337e-07 W

              Chooser:
                Area = 0.0435221 mm^2
                Peak Dynamic = 0.0168831 W
                Subthreshold Leakage = 0.00759719 W
                Subthreshold Leakage with power gating = 0.0039236 W
                Gate Leakage = 0.000278362 W
                Runtime Dynamic = 4.8332e-07 W

              RAS:
                Area = 0.0105732 mm^2
                Peak Dynamic = 0.0117602 W
                Subthreshold Leakage = 0.000932505 W
                Subthreshold Leakage with power gating = 0.000494733 W
                Gate Leakage = 4.63858e-05 W
                Runtime Dynamic = 2.33456e-07 W

          Instruction Buffer:
            Area = 0.0226323 mm^2
            Peak Dynamic = 0.606827 W
            Subthreshold Leakage = 0.00151885 W
            Subthreshold Leakage with power gating = 0.000701682 W
            Gate Leakage = 6.83558e-05 W
            Runtime Dynamic = 1.56237e-05 W

          Instruction Decoder:
            Area = 1.85799 mm^2
            Peak Dynamic = 1.37404 W
            Subthreshold Leakage = 0.442943 W
            Subthreshold Leakage with power gating = 0.166104 W
            Gate Leakage = 0.0222493 W
            Runtime Dynamic = 5.3065e-05 W

      Renaming Unit:
        Area = 0.0865297 mm^2
        Peak Dynamic = 1.02911 W
        Subthreshold Leakage = 0.020636 W
        Subthreshold Leakage with power gating = 0.00786506 W
        Gate Leakage = 0.00335557 W
        Runtime Dynamic = 2.0401e-05 W

          Int Front End RAT:
            Area = 0 mm^2
            Peak Dynamic = 0.447984 W
            Subthreshold Leakage = 0 W
            Subthreshold Leakage with power gating = -nan W
            Gate Leakage = 0 W
            Runtime Dynamic = 1.7301e-05 W

          FP Front End RAT:
            Area = 0 mm^2
            Peak Dynamic = 0.223992 W
            Subthreshold Leakage = 0 W
            Subthreshold Leakage with power gating = -nan W
            Gate Leakage = 0 W
            Runtime Dynamic = 0 W

          Free List:
            Area = 0.0414755 mm^2
            Peak Dynamic = 0.0401324 W
            Subthreshold Leakage = 0.000670426 W
            Subthreshold Leakage with power gating = 0.000377987 W
            Gate Leakage = 4.15911e-05 W
            Runtime Dynamic = 3.0998e-06 W

      Load Store Unit:
        Area = 8.80969 mm^2
        Peak Dynamic = 1.23759 W
        Subthreshold Leakage = 0.591622 W
        Subthreshold Leakage with power gating = 0.283406 W
        Gate Leakage = 0.0351387 W
        Runtime Dynamic = 0.00028064 W

          Data Cache:
            Area = 6.84535 mm^2
            Peak Dynamic = 1.23753 W
            Subthreshold Leakage = 0.527675 W
            Subthreshold Leakage with power gating = 0.25085 W
            Gate Leakage = 0.0279261 W
            Runtime Dynamic = 0.000202186 W

          LoadQ:
            Area = 0.0836782 mm^2
            Peak Dynamic = 1.31708e-05 W
            Subthreshold Leakage = 0.00941961 W
            Subthreshold Leakage with power gating = 0.00536918 W
            Gate Leakage = 0.00059896 W
            Runtime Dynamic = 1.32263e-05 W

          StoreQ:
            Area = 0.322079 mm^2
            Peak Dynamic = 3.24769e-05 W
            Subthreshold Leakage = 0.0345621 W
            Subthreshold Leakage with power gating = 0.0197004 W
            Gate Leakage = 0.00329971 W
            Runtime Dynamic = 6.52278e-05 W

      Memory Management Unit:
        Area = 0.346606 mm^2
        Peak Dynamic = 0.158568 W
        Subthreshold Leakage = 0.0613414 W
        Subthreshold Leakage with power gating = 0.0310713 W
        Gate Leakage = 0.00724862 W
        Runtime Dynamic = 8.36461e-06 W

          Itlb:
            Area = 0.301552 mm^2
            Peak Dynamic = 6.15992e-05 W
            Subthreshold Leakage = 0.0413758 W
            Subthreshold Leakage with power gating = 0.0235842 W
            Gate Leakage = 0.00393464 W
            Runtime Dynamic = 8.36448e-06 W

          Dtlb:
            Area = 0 mm^2
            Peak Dynamic = 0 W
            Subthreshold Leakage = 0 W
            Subthreshold Leakage with power gating = -nan W
            Gate Leakage = 0 W
            Runtime Dynamic = 0 W

      Execution Unit:
        Area = 7.67783 mm^2
        Peak Dynamic = 3.3113 W
        Subthreshold Leakage = 1.76298 W
        Subthreshold Leakage with power gating = 0.66816 W
        Gate Leakage = 0.117962 W
        Runtime Dynamic = 0.608394 W

          Register Files:
            Area = 0.725346 mm^2
            Peak Dynamic = 1.60475e-05 W
            Subthreshold Leakage = 0.0122835 W
            Subthreshold Leakage with power gating = 0.00493351 W
            Gate Leakage = 0.00077984 W
            Runtime Dynamic = 1.89609e-05 W

              Integer RF:
                Area = 0.362673 mm^2
                Peak Dynamic = 1.60475e-05 W
                Subthreshold Leakage = 0.00614175 W
                Subthreshold Leakage with power gating = 0.00246675 W
                Gate Leakage = 0.00038992 W
                Runtime Dynamic = 1.62522e-05 W

              Floating Point RF:
                Area = 0.362673 mm^2
                Peak Dynamic = 0 W
                Subthreshold Leakage = 0.00614175 W
                Subthreshold Leakage with power gating = 0.00246675 W
                Gate Leakage = 0.00038992 W
                Runtime Dynamic = 2.70869e-06 W

          Instruction Scheduler:
            Area = 1.49901 mm^2
            Peak Dynamic = 3.31117 W
            Subthreshold Leakage = 0.0413754 W
            Subthreshold Leakage with power gating = 0.0222326 W
            Gate Leakage = 0.00244394 W
            Runtime Dynamic = 0.00014891 W

              Instruction Window:
                Area = 0.329703 mm^2
                Peak Dynamic = 0.542479 W
                Subthreshold Leakage = 0.006509 W
                Subthreshold Leakage with power gating = 0.00363852 W
                Gate Leakage = 0.000434043 W
                Runtime Dynamic = 2.09504e-05 W

              FP Instruction Window:
                Area = 0.328073 mm^2
                Peak Dynamic = 1.20978 W
                Subthreshold Leakage = 0.017004 W
                Subthreshold Leakage with power gating = 0.00962066 W
                Gate Leakage = 0.00115349 W
                Runtime Dynamic = 6.06206e-05 W

              ROB:
                Area = 0.841232 mm^2
                Peak Dynamic = 1.55892 W
                Subthreshold Leakage = 0.0178624 W
                Subthreshold Leakage with power gating = 0.00897339 W
                Gate Leakage = 0.000856399 W
                Runtime Dynamic = 6.73389e-05 W

          Integer ALUs (Count: 6 ):
            Area = 0.47087 mm^2
            Peak Dynamic = 6.0511e-05 W
            Subthreshold Leakage = 0.40222 W
            Subthreshold Leakage with power gating = 0.150833 W
            Gate Leakage = 0.0265291 W
            Runtime Dynamic = 0.101399 W

          Floating Point Units (FPUs) (Count: 2 ):
            Area = 4.6585 mm^2
            Peak Dynamic = 0 W
            Subthreshold Leakage = 0.994829 W
            Subthreshold Leakage with power gating = 0.373061 W
            Gate Leakage = 0.0656156 W
            Runtime Dynamic = 0.304033 W

          Complex ALUs (Mul/Div) (Count: 1 ):
            Area = 0.235435 mm^2
            Peak Dynamic = 0 W
            Subthreshold Leakage = 0.20111 W
            Subthreshold Leakage with power gating = 0.0754163 W
            Gate Leakage = 0.0132646 W
            Runtime Dynamic = 0.202689 W

          Results Broadcast Bus:
            Area Overhead = 0.0436135 mm^2
            Peak Dynamic = 3.73475e-05 W
            Subthreshold Leakage = 0.0911921 W
            Subthreshold Leakage with power gating = 0.034197 W
            Gate Leakage = 0.00601473 W
            Runtime Dynamic = 0.000105597 W

    L2
    Area = 4.53318 mm^2
    Peak Dynamic = 1.01786e-05 W
    Subthreshold Leakage = 0.834142 W
    Subthreshold Leakage with power gating = 0.401066 W
    Gate Leakage = 0.015464 W
    Runtime Dynamic = 4.27339e-06 W

*****************************************************************************************
Core:
      Area = 30.445 mm^2
      Peak Dynamic = 7.95549 W
      Subthreshold Leakage = 5.89985 W
      Subthreshold Leakage with power gating = 2.40096 W
      Gate Leakage = 0.350117 W
      Runtime Dynamic = 0.608816 W

      Instruction Fetch Unit:
        Area = 4.59444 mm^2
        Peak Dynamic = 2.21893 W
        Subthreshold Leakage = 0.751292 W
        Subthreshold Leakage with power gating = 0.305204 W
        Gate Leakage = 0.0470923 W
        Runtime Dynamic = 0.000122737 W

          Instruction Cache:
            Area = 1.88071 mm^2
            Peak Dynamic = 0.000370878 W
            Subthreshold Leakage = 0.185726 W
            Subthreshold Leakage with power gating = 0.0770478 W
            Gate Leakage = 0.0179754 W
            Runtime Dynamic = 4.88826e-05 W

          Branch Target Buffer:
            Area = 0.64954 mm^2
            Peak Dynamic = 0.177867 W
            Subthreshold Leakage = 0.0811682 W
            Subthreshold Leakage with power gating = 0.0435357 W
            Gate Leakage = 0.00272758 W
            Runtime Dynamic = 4.53706e-06 W

          Branch Predictor:
            Area = 0.138516 mm^2
            Peak Dynamic = 0.0597838 W
            Subthreshold Leakage = 0.0199703 W
            Subthreshold Leakage with power gating = 0.0103282 W
            Gate Leakage = 0.000757657 W
            Runtime Dynamic = 1.60725e-06 W

              Global Predictor:
                Area = 0.0435221 mm^2
                Peak Dynamic = 0.0168831 W
                Subthreshold Leakage = 0.00759719 W
                Subthreshold Leakage with power gating = 0.0039236 W
                Gate Leakage = 0.000278362 W
                Runtime Dynamic = 4.79113e-07 W

              Local Predictor:
              L1_Local Predictor:
                Area = 0.0257064 mm^2
                Peak Dynamic = 0.0142575 W
                Subthreshold Leakage = 0.00384344 W
                Subthreshold Leakage with power gating = 0.00198631 W
                Gate Leakage = 0.000154548 W
                Runtime Dynamic = 4.18892e-07 W

              L2_Local Predictor:
                Area = 0.0151917 mm^2
                Peak Dynamic = 0.00527447 W
                Subthreshold Leakage = 0.00181347 W
                Subthreshold Leakage with power gating = 0.000957045 W
                Gate Leakage = 8.00196e-05 W
                Runtime Dynamic = 1.63027e-07 W

              Chooser:
                Area = 0.0435221 mm^2
                Peak Dynamic = 0.0168831 W
                Subthreshold Leakage = 0.00759719 W
                Subthreshold Leakage with power gating = 0.0039236 W
                Gate Leakage = 0.000278362 W
                Runtime Dynamic = 4.79113e-07 W

              RAS:
                Area = 0.0105732 mm^2
                Peak Dynamic = 0.0117602 W
                Subthreshold Leakage = 0.000932505 W
                Subthreshold Leakage with power gating = 0.000494733 W
                Gate Leakage = 4.63858e-05 W
                Runtime Dynamic = 2.30135e-07 W

          Instruction Buffer:
            Area = 0.0226323 mm^2
            Peak Dynamic = 0.606827 W
            Subthreshold Leakage = 0.00151885 W
            Subthreshold Leakage with power gating = 0.000701682 W
            Gate Leakage = 6.83558e-05 W
            Runtime Dynamic = 1.54009e-05 W

          Instruction Decoder:
            Area = 1.85799 mm^2
            Peak Dynamic = 1.37404 W
            Subthreshold Leakage = 0.442943 W
            Subthreshold Leakage with power gating = 0.166104 W
            Gate Leakage = 0.0222493 W
            Runtime Dynamic = 5.23085e-05 W

      Renaming Unit:
        Area = 0.0865297 mm^2
        Peak Dynamic = 1.02911 W
        Subthreshold Leakage = 0.020636 W
        Subthreshold Leakage with power gating = 0.00786506 W
        Gate Leakage = 0.00335557 W
        Runtime Dynamic = 2.01102e-05 W

          Int Front End RAT:
            Area = 0 mm^2
            Peak Dynamic = 0.447984 W
            Subthreshold Leakage = 0 W
            Subthreshold Leakage with power gating = -nan W
            Gate Leakage = 0 W
            Runtime Dynamic = 1.70544e-05 W

          FP Front End RAT:
            Area = 0 mm^2
            Peak Dynamic = 0.223992 W
            Subthreshold Leakage = 0 W
            Subthreshold Leakage with power gating = -nan W
            Gate Leakage = 0 W
            Runtime Dynamic = 0 W

          Free List:
            Area = 0.0414755 mm^2
            Peak Dynamic = 0.0401324 W
            Subthreshold Leakage = 0.000670426 W
            Subthreshold Leakage with power gating = 0.000377987 W
            Gate Leakage = 4.15911e-05 W
            Runtime Dynamic = 3.05562e-06 W

      Load Store Unit:
        Area = 8.80969 mm^2
        Peak Dynamic = 1.23758 W
        Subthreshold Leakage = 0.591622 W
        Subthreshold Leakage with power gating = 0.283406 W
        Gate Leakage = 0.0351387 W
        Runtime Dynamic = 0.000272417 W

          Data Cache:
            Area = 6.84535 mm^2
            Peak Dynamic = 1.23752 W
            Subthreshold Leakage = 0.527675 W
            Subthreshold Leakage with power gating = 0.25085 W
            Gate Leakage = 0.0279261 W
            Runtime Dynamic = 0.000195696 W

          LoadQ:
            Area = 0.0836782 mm^2
            Peak Dynamic = 1.29223e-05 W
            Subthreshold Leakage = 0.00941961 W
            Subthreshold Leakage with power gating = 0.00536918 W
            Gate Leakage = 0.00059896 W
            Runtime Dynamic = 1.29341e-05 W

          StoreQ:
            Area = 0.322079 mm^2
            Peak Dynamic = 3.18641e-05 W
            Subthreshold Leakage = 0.0345621 W
            Subthreshold Leakage with power gating = 0.0197004 W
            Gate Leakage = 0.00329971 W
            Runtime Dynamic = 6.37868e-05 W

      Memory Management Unit:
        Area = 0.346606 mm^2
        Peak Dynamic = 0.158567 W
        Subthreshold Leakage = 0.0613414 W
        Subthreshold Leakage with power gating = 0.0310713 W
        Gate Leakage = 0.00724862 W
        Runtime Dynamic = 8.24585e-06 W

          Itlb:
            Area = 0.301552 mm^2
            Peak Dynamic = 6.07992e-05 W
            Subthreshold Leakage = 0.0413758 W
            Subthreshold Leakage with power gating = 0.0235842 W
            Gate Leakage = 0.00393464 W
            Runtime Dynamic = 8.24572e-06 W

          Dtlb:
            Area = 0 mm^2
            Peak Dynamic = 0 W
            Subthreshold Leakage = 0 W
            Subthreshold Leakage with power gating = -nan W
            Gate Leakage = 0 W
            Runtime Dynamic = 0 W

      Execution Unit:
        Area = 7.67783 mm^2
        Peak Dynamic = 3.31129 W
        Subthreshold Leakage = 1.76298 W
        Subthreshold Leakage with power gating = 0.66816 W
        Gate Leakage = 0.117962 W
        Runtime Dynamic = 0.608389 W

          Register Files:
            Area = 0.725346 mm^2
            Peak Dynamic = 1.54303e-05 W
            Subthreshold Leakage = 0.0122835 W
            Subthreshold Leakage with power gating = 0.00493351 W
            Gate Leakage = 0.00077984 W
            Runtime Dynamic = 1.86906e-05 W

              Integer RF:
                Area = 0.362673 mm^2
                Peak Dynamic = 1.54303e-05 W
                Subthreshold Leakage = 0.00614175 W
                Subthreshold Leakage with power gating = 0.00246675 W
                Gate Leakage = 0.00038992 W
                Runtime Dynamic = 1.60205e-05 W

              Floating Point RF:
                Area = 0.362673 mm^2
                Peak Dynamic = 0 W
                Subthreshold Leakage = 0.00614175 W
                Subthreshold Leakage with power gating = 0.00246675 W
                Gate Leakage = 0.00038992 W
                Runtime Dynamic = 2.67007e-06 W

          Instruction Scheduler:
            Area = 1.49901 mm^2
            Peak Dynamic = 3.31117 W
            Subthreshold Leakage = 0.0413754 W
            Subthreshold Leakage with power gating = 0.0222326 W
            Gate Leakage = 0.00244394 W
            Runtime Dynamic = 0.000146879 W

              Instruction Window:
                Area = 0.329703 mm^2
                Peak Dynamic = 0.542479 W
                Subthreshold Leakage = 0.006509 W
                Subthreshold Leakage with power gating = 0.00363852 W
                Gate Leakage = 0.000434043 W
                Runtime Dynamic = 2.06517e-05 W

              FP Instruction Window:
                Area = 0.328073 mm^2
                Peak Dynamic = 1.20978 W
                Subthreshold Leakage = 0.017004 W
                Subthreshold Leakage with power gating = 0.00962066 W
                Gate Leakage = 0.00115349 W
                Runtime Dynamic = 5.97565e-05 W

              ROB:
                Area = 0.841232 mm^2
                Peak Dynamic = 1.55892 W
                Subthreshold Leakage = 0.0178624 W
                Subthreshold Leakage with power gating = 0.00897339 W
                Gate Leakage = 0.000856399 W
                Runtime Dynamic = 6.6471e-05 W

          Integer ALUs (Count: 6 ):
            Area = 0.47087 mm^2
            Peak Dynamic = 5.81837e-05 W
            Subthreshold Leakage = 0.40222 W
            Subthreshold Leakage with power gating = 0.150833 W
            Gate Leakage = 0.0265291 W
            Runtime Dynamic = 0.101398 W

          Floating Point Units (FPUs) (Count: 2 ):
            Area = 4.6585 mm^2
            Peak Dynamic = 0 W
            Subthreshold Leakage = 0.994829 W
            Subthreshold Leakage with power gating = 0.373061 W
            Gate Leakage = 0.0656156 W
            Runtime Dynamic = 0.304033 W

          Complex ALUs (Mul/Div) (Count: 1 ):
            Area = 0.235435 mm^2
            Peak Dynamic = 0 W
            Subthreshold Leakage = 0.20111 W
            Subthreshold Leakage with power gating = 0.0754163 W
            Gate Leakage = 0.0132646 W
            Runtime Dynamic = 0.202689 W

          Results Broadcast Bus:
            Area Overhead = 0.0436135 mm^2
            Peak Dynamic = 3.59111e-05 W
            Subthreshold Leakage = 0.0911921 W
            Subthreshold Leakage with power gating = 0.034197 W
            Gate Leakage = 0.00601473 W
            Runtime Dynamic = 0.000104177 W

    L2
    Area = 4.53318 mm^2
    Peak Dynamic = 1.01786e-05 W
    Subthreshold Leakage = 0.834142 W
    Subthreshold Leakage with power gating = 0.401066 W
    Gate Leakage = 0.015464 W
    Runtime Dynamic = 3.03335e-06 W

*****************************************************************************************
Core:
      Area = 30.445 mm^2
      Peak Dynamic = 7.95653 W
      Subthreshold Leakage = 5.89985 W
      Subthreshold Leakage with power gating = 2.40096 W
      Gate Leakage = 0.350117 W
      Runtime Dynamic = 0.609539 W

      Instruction Fetch Unit:
        Area = 4.59444 mm^2
        Peak Dynamic = 2.21934 W
        Subthreshold Leakage = 0.751292 W
        Subthreshold Leakage with power gating = 0.305204 W
        Gate Leakage = 0.0470923 W
        Runtime Dynamic = 0.000241118 W

          Instruction Cache:
            Area = 1.88071 mm^2
            Peak Dynamic = 0.000729556 W
            Subthreshold Leakage = 0.185726 W
            Subthreshold Leakage with power gating = 0.0770478 W
            Gate Leakage = 0.0179754 W
            Runtime Dynamic = 9.59923e-05 W

          Branch Target Buffer:
            Area = 0.64954 mm^2
            Peak Dynamic = 0.177867 W
            Subthreshold Leakage = 0.0811682 W
            Subthreshold Leakage with power gating = 0.0435357 W
            Gate Leakage = 0.00272758 W
            Runtime Dynamic = 8.88451e-06 W

          Branch Predictor:
            Area = 0.138516 mm^2
            Peak Dynamic = 0.0597838 W
            Subthreshold Leakage = 0.0199703 W
            Subthreshold Leakage with power gating = 0.0103282 W
            Gate Leakage = 0.000757657 W
            Runtime Dynamic = 3.12816e-06 W

              Global Predictor:
                Area = 0.0435221 mm^2
                Peak Dynamic = 0.0168831 W
                Subthreshold Leakage = 0.00759719 W
                Subthreshold Leakage with power gating = 0.0039236 W
                Gate Leakage = 0.000278362 W
                Runtime Dynamic = 9.31531e-07 W

              Local Predictor:
              L1_Local Predictor:
                Area = 0.0257064 mm^2
                Peak Dynamic = 0.0142575 W
                Subthreshold Leakage = 0.00384344 W
                Subthreshold Leakage with power gating = 0.00198631 W
                Gate Leakage = 0.000154548 W
                Runtime Dynamic = 8.12675e-07 W

              L2_Local Predictor:
                Area = 0.0151917 mm^2
                Peak Dynamic = 0.00527447 W
                Subthreshold Leakage = 0.00181347 W
                Subthreshold Leakage with power gating = 0.000957045 W
                Gate Leakage = 8.00196e-05 W
                Runtime Dynamic = 3.15318e-07 W

              Chooser:
                Area = 0.0435221 mm^2
                Peak Dynamic = 0.0168831 W
                Subthreshold Leakage = 0.00759719 W
                Subthreshold Leakage with power gating = 0.0039236 W
                Gate Leakage = 0.000278362 W
                Runtime Dynamic = 9.31531e-07 W

              RAS:
                Area = 0.0105732 mm^2
                Peak Dynamic = 0.0117602 W
                Subthreshold Leakage = 0.000932505 W
                Subthreshold Leakage with power gating = 0.000494733 W
                Gate Leakage = 4.63858e-05 W
                Runtime Dynamic = 4.52426e-07 W

          Instruction Buffer:
            Area = 0.0226323 mm^2
            Peak Dynamic = 0.606827 W
            Subthreshold Leakage = 0.00151885 W
            Subthreshold Leakage with power gating = 0.000701682 W
            Gate Leakage = 6.83558e-05 W
            Runtime Dynamic = 3.02773e-05 W

          Instruction Decoder:
            Area = 1.85799 mm^2
            Peak Dynamic = 1.37404 W
            Subthreshold Leakage = 0.442943 W
            Subthreshold Leakage with power gating = 0.166104 W
            Gate Leakage = 0.0222493 W
            Runtime Dynamic = 0.000102835 W

      Renaming Unit:
        Area = 0.0865297 mm^2
        Peak Dynamic = 1.02911 W
        Subthreshold Leakage = 0.020636 W
        Subthreshold Leakage with power gating = 0.00786506 W
        Gate Leakage = 0.00335557 W
        Runtime Dynamic = 3.95352e-05 W

          Int Front End RAT:
            Area = 0 mm^2
            Peak Dynamic = 0.447984 W
            Subthreshold Leakage = 0 W
            Subthreshold Leakage with power gating = -nan W
            Gate Leakage = 0 W
            Runtime Dynamic = 3.35279e-05 W

          FP Front End RAT:
            Area = 0 mm^2
            Peak Dynamic = 0.223992 W
            Subthreshold Leakage = 0 W
            Subthreshold Leakage with power gating = -nan W
            Gate Leakage = 0 W
            Runtime Dynamic = 0 W

          Free List:
            Area = 0.0414755 mm^2
            Peak Dynamic = 0.0401324 W
            Subthreshold Leakage = 0.000670426 W
            Subthreshold Leakage with power gating = 0.000377987 W
            Gate Leakage = 4.15911e-05 W
            Runtime Dynamic = 6.00716e-06 W

      Load Store Unit:
        Area = 8.80969 mm^2
        Peak Dynamic = 1.23802 W
        Subthreshold Leakage = 0.591622 W
        Subthreshold Leakage with power gating = 0.283406 W
        Gate Leakage = 0.0351387 W
        Runtime Dynamic = 0.000534775 W

          Data Cache:
            Area = 6.84535 mm^2
            Peak Dynamic = 1.2379 W
            Subthreshold Leakage = 0.527675 W
            Subthreshold Leakage with power gating = 0.25085 W
            Gate Leakage = 0.0279261 W
            Runtime Dynamic = 0.000384258 W

          LoadQ:
            Area = 0.0836782 mm^2
            Peak Dynamic = 2.53475e-05 W
            Subthreshold Leakage = 0.00941961 W
            Subthreshold Leakage with power gating = 0.00536918 W
            Gate Leakage = 0.00059896 W
            Runtime Dynamic = 2.53752e-05 W

          StoreQ:
            Area = 0.322079 mm^2
            Peak Dynamic = 6.25027e-05 W
            Subthreshold Leakage = 0.0345621 W
            Subthreshold Leakage with power gating = 0.0197004 W
            Gate Leakage = 0.00329971 W
            Runtime Dynamic = 0.000125142 W

      Memory Management Unit:
        Area = 0.346606 mm^2
        Peak Dynamic = 0.158634 W
        Subthreshold Leakage = 0.0613414 W
        Subthreshold Leakage with power gating = 0.0310713 W
        Gate Leakage = 0.00724862 W
        Runtime Dynamic = 1.60291e-05 W

          Itlb:
            Area = 0.301552 mm^2
            Peak Dynamic = 0.000119598 W
            Subthreshold Leakage = 0.0413758 W
            Subthreshold Leakage with power gating = 0.0235842 W
            Gate Leakage = 0.00393464 W
            Runtime Dynamic = 1.6029e-05 W

          Dtlb:
            Area = 0 mm^2
            Peak Dynamic = 0 W
            Subthreshold Leakage = 0 W
            Subthreshold Leakage with power gating = -nan W
            Gate Leakage = 0 W
            Runtime Dynamic = 0 W

      Execution Unit:
        Area = 7.67783 mm^2
        Peak Dynamic = 3.31141 W
        Subthreshold Leakage = 1.76298 W
        Subthreshold Leakage with power gating = 0.66816 W
        Gate Leakage = 0.117962 W
        Runtime Dynamic = 0.608702 W

          Register Files:
            Area = 0.725346 mm^2
            Peak Dynamic = 3.08606e-05 W
            Subthreshold Leakage = 0.0122835 W
            Subthreshold Leakage with power gating = 0.00493351 W
            Gate Leakage = 0.00077984 W
            Runtime Dynamic = 3.67446e-05 W

              Integer RF:
                Area = 0.362673 mm^2
                Peak Dynamic = 3.08606e-05 W
                Subthreshold Leakage = 0.00614175 W
                Subthreshold Leakage with power gating = 0.00246675 W
                Gate Leakage = 0.00038992 W
                Runtime Dynamic = 3.14954e-05 W

              Floating Point RF:
                Area = 0.362673 mm^2
                Peak Dynamic = 0 W
                Subthreshold Leakage = 0.00614175 W
                Subthreshold Leakage with power gating = 0.00246675 W
                Gate Leakage = 0.00038992 W
                Runtime Dynamic = 5.24922e-06 W

          Instruction Scheduler:
            Area = 1.49901 mm^2
            Peak Dynamic = 3.31117 W
            Subthreshold Leakage = 0.0413754 W
            Subthreshold Leakage with power gating = 0.0222326 W
            Gate Leakage = 0.00244394 W
            Runtime Dynamic = 0.000288755 W

              Instruction Window:
                Area = 0.329703 mm^2
                Peak Dynamic = 0.542479 W
                Subthreshold Leakage = 0.006509 W
                Subthreshold Leakage with power gating = 0.00363852 W
                Gate Leakage = 0.000434043 W
                Runtime Dynamic = 4.06001e-05 W

              FP Instruction Window:
                Area = 0.328073 mm^2
                Peak Dynamic = 1.20978 W
                Subthreshold Leakage = 0.017004 W
                Subthreshold Leakage with power gating = 0.00962066 W
                Gate Leakage = 0.00115349 W
                Runtime Dynamic = 0.000117478 W

              ROB:
                Area = 0.841232 mm^2
                Peak Dynamic = 1.55892 W
                Subthreshold Leakage = 0.0178624 W
                Subthreshold Leakage with power gating = 0.00897339 W
                Gate Leakage = 0.000856399 W
                Runtime Dynamic = 0.000130678 W

          Integer ALUs (Count: 6 ):
            Area = 0.47087 mm^2
            Peak Dynamic = 0.000116367 W
            Subthreshold Leakage = 0.40222 W
            Subthreshold Leakage with power gating = 0.150833 W
            Gate Leakage = 0.0265291 W
            Runtime Dynamic = 0.10145 W

          Floating Point Units (FPUs) (Count: 2 ):
            Area = 4.6585 mm^2
            Peak Dynamic = 0 W
            Subthreshold Leakage = 0.994829 W
            Subthreshold Leakage with power gating = 0.373061 W
            Gate Leakage = 0.0656156 W
            Runtime Dynamic = 0.304033 W

          Complex ALUs (Mul/Div) (Count: 1 ):
            Area = 0.235435 mm^2
            Peak Dynamic = 0 W
            Subthreshold Leakage = 0.20111 W
            Subthreshold Leakage with power gating = 0.0754163 W
            Gate Leakage = 0.0132646 W
            Runtime Dynamic = 0.202689 W

          Results Broadcast Bus:
            Area Overhead = 0.0436135 mm^2
            Peak Dynamic = 7.18222e-05 W
            Subthreshold Leakage = 0.0911921 W
            Subthreshold Leakage with power gating = 0.034197 W
            Gate Leakage = 0.00601473 W
            Runtime Dynamic = 0.000204947 W

    L2
    Area = 4.53318 mm^2
    Peak Dynamic = 1.52679e-05 W
    Subthreshold Leakage = 0.834142 W
    Subthreshold Leakage with power gating = 0.401066 W
    Gate Leakage = 0.015464 W
    Runtime Dynamic = 5.86465e-06 W

*****************************************************************************************
Core:
      Area = 30.445 mm^2
      Peak Dynamic = 7.95654 W
      Subthreshold Leakage = 5.89985 W
      Subthreshold Leakage with power gating = 2.40096 W
      Gate Leakage = 0.350117 W
      Runtime Dynamic = 0.609547 W

      Instruction Fetch Unit:
        Area = 4.59444 mm^2
        Peak Dynamic = 2.21935 W
        Subthreshold Leakage = 0.751292 W
        Subthreshold Leakage with power gating = 0.305204 W
        Gate Leakage = 0.0470923 W
        Runtime Dynamic = 0.000242201 W

          Instruction Cache:
            Area = 1.88071 mm^2
            Peak Dynamic = 0.000734436 W
            Subthreshold Leakage = 0.185726 W
            Subthreshold Leakage with power gating = 0.0770478 W
            Gate Leakage = 0.0179754 W
            Runtime Dynamic = 9.63069e-05 W

          Branch Target Buffer:
            Area = 0.64954 mm^2
            Peak Dynamic = 0.177867 W
            Subthreshold Leakage = 0.0811682 W
            Subthreshold Leakage with power gating = 0.0435357 W
            Gate Leakage = 0.00272758 W
            Runtime Dynamic = 8.94502e-06 W

          Branch Predictor:
            Area = 0.138516 mm^2
            Peak Dynamic = 0.0597838 W
            Subthreshold Leakage = 0.0199703 W
            Subthreshold Leakage with power gating = 0.0103282 W
            Gate Leakage = 0.000757657 W
            Runtime Dynamic = 3.1503e-06 W

              Global Predictor:
                Area = 0.0435221 mm^2
                Peak Dynamic = 0.0168831 W
                Subthreshold Leakage = 0.00759719 W
                Subthreshold Leakage with power gating = 0.0039236 W
                Gate Leakage = 0.000278362 W
                Runtime Dynamic = 9.38381e-07 W

              Local Predictor:
              L1_Local Predictor:
                Area = 0.0257064 mm^2
                Peak Dynamic = 0.0142575 W
                Subthreshold Leakage = 0.00384344 W
                Subthreshold Leakage with power gating = 0.00198631 W
                Gate Leakage = 0.000154548 W
                Runtime Dynamic = 8.18786e-07 W

              L2_Local Predictor:
                Area = 0.0151917 mm^2
                Peak Dynamic = 0.00527447 W
                Subthreshold Leakage = 0.00181347 W
                Subthreshold Leakage with power gating = 0.000957045 W
                Gate Leakage = 8.00196e-05 W
                Runtime Dynamic = 3.17763e-07 W

              Chooser:
                Area = 0.0435221 mm^2
                Peak Dynamic = 0.0168831 W
                Subthreshold Leakage = 0.00759719 W
                Subthreshold Leakage with power gating = 0.0039236 W
                Gate Leakage = 0.000278362 W
                Runtime Dynamic = 9.38381e-07 W

              RAS:
                Area = 0.0105732 mm^2
                Peak Dynamic = 0.0117602 W
                Subthreshold Leakage = 0.000932505 W
                Subthreshold Leakage with power gating = 0.000494733 W
                Gate Leakage = 4.63858e-05 W
                Runtime Dynamic = 4.54755e-07 W

          Instruction Buffer:
            Area = 0.0226323 mm^2
            Peak Dynamic = 0.606827 W
            Subthreshold Leakage = 0.00151885 W
            Subthreshold Leakage with power gating = 0.000701682 W
            Gate Leakage = 6.83558e-05 W
            Runtime Dynamic = 3.04333e-05 W

          Instruction Decoder:
            Area = 1.85799 mm^2
            Peak Dynamic = 1.37404 W
            Subthreshold Leakage = 0.442943 W
            Subthreshold Leakage with power gating = 0.166104 W
            Gate Leakage = 0.0222493 W
            Runtime Dynamic = 0.000103365 W

      Renaming Unit:
        Area = 0.0865297 mm^2
        Peak Dynamic = 1.02911 W
        Subthreshold Leakage = 0.020636 W
        Subthreshold Leakage with power gating = 0.00786506 W
        Gate Leakage = 0.00335557 W
        Runtime Dynamic = 3.97389e-05 W

          Int Front End RAT:
            Area = 0 mm^2
            Peak Dynamic = 0.447984 W
            Subthreshold Leakage = 0 W
            Subthreshold Leakage with power gating = -nan W
            Gate Leakage = 0 W
            Runtime Dynamic = 3.37006e-05 W

          FP Front End RAT:
            Area = 0 mm^2
            Peak Dynamic = 0.223992 W
            Subthreshold Leakage = 0 W
            Subthreshold Leakage with power gating = -nan W
            Gate Leakage = 0 W
            Runtime Dynamic = 0 W

          Free List:
            Area = 0.0414755 mm^2
            Peak Dynamic = 0.0401324 W
            Subthreshold Leakage = 0.000670426 W
            Subthreshold Leakage with power gating = 0.000377987 W
            Gate Leakage = 4.15911e-05 W
            Runtime Dynamic = 6.0381e-06 W

      Load Store Unit:
        Area = 8.80969 mm^2
        Peak Dynamic = 1.23803 W
        Subthreshold Leakage = 0.591622 W
        Subthreshold Leakage with power gating = 0.283406 W
        Gate Leakage = 0.0351387 W
        Runtime Dynamic = 0.000537969 W

          Data Cache:
            Area = 6.84535 mm^2
            Peak Dynamic = 1.23791 W
            Subthreshold Leakage = 0.527675 W
            Subthreshold Leakage with power gating = 0.25085 W
            Gate Leakage = 0.0279261 W
            Runtime Dynamic = 0.000386514 W

          LoadQ:
            Area = 0.0836782 mm^2
            Peak Dynamic = 2.5596e-05 W
            Subthreshold Leakage = 0.00941961 W
            Subthreshold Leakage with power gating = 0.00536918 W
            Gate Leakage = 0.00059896 W
            Runtime Dynamic = 2.55333e-05 W

          StoreQ:
            Area = 0.322079 mm^2
            Peak Dynamic = 6.31155e-05 W
            Subthreshold Leakage = 0.0345621 W
            Subthreshold Leakage with power gating = 0.0197004 W
            Gate Leakage = 0.00329971 W
            Runtime Dynamic = 0.000125921 W

      Memory Management Unit:
        Area = 0.346606 mm^2
        Peak Dynamic = 0.158635 W
        Subthreshold Leakage = 0.0613414 W
        Subthreshold Leakage with power gating = 0.0310713 W
        Gate Leakage = 0.00724862 W
        Runtime Dynamic = 1.61285e-05 W

          Itlb:
            Area = 0.301552 mm^2
            Peak Dynamic = 0.000120398 W
            Subthreshold Leakage = 0.0413758 W
            Subthreshold Leakage with power gating = 0.0235842 W
            Gate Leakage = 0.00393464 W
            Runtime Dynamic = 1.61284e-05 W

          Dtlb:
            Area = 0 mm^2
            Peak Dynamic = 0 W
            Subthreshold Leakage = 0 W
            Subthreshold Leakage with power gating = -nan W
            Gate Leakage = 0 W
            Runtime Dynamic = 0 W

      Execution Unit:
        Area = 7.67783 mm^2
        Peak Dynamic = 3.31141 W
        Subthreshold Leakage = 1.76298 W
        Subthreshold Leakage with power gating = 0.66816 W
        Gate Leakage = 0.117962 W
        Runtime Dynamic = 0.608705 W

          Register Files:
            Area = 0.725346 mm^2
            Peak Dynamic = 3.08606e-05 W
            Subthreshold Leakage = 0.0122835 W
            Subthreshold Leakage with power gating = 0.00493351 W
            Gate Leakage = 0.00077984 W
            Runtime Dynamic = 3.69338e-05 W

              Integer RF:
                Area = 0.362673 mm^2
                Peak Dynamic = 3.08606e-05 W
                Subthreshold Leakage = 0.00614175 W
                Subthreshold Leakage with power gating = 0.00246675 W
                Gate Leakage = 0.00038992 W
                Runtime Dynamic = 3.16576e-05 W

              Floating Point RF:
                Area = 0.362673 mm^2
                Peak Dynamic = 0 W
                Subthreshold Leakage = 0.00614175 W
                Subthreshold Leakage with power gating = 0.00246675 W
                Gate Leakage = 0.00038992 W
                Runtime Dynamic = 5.27623e-06 W

          Instruction Scheduler:
            Area = 1.49901 mm^2
            Peak Dynamic = 3.31117 W
            Subthreshold Leakage = 0.0413754 W
            Subthreshold Leakage with power gating = 0.0222326 W
            Gate Leakage = 0.00244394 W
            Runtime Dynamic = 0.000290243 W

              Instruction Window:
                Area = 0.329703 mm^2
                Peak Dynamic = 0.542479 W
                Subthreshold Leakage = 0.006509 W
                Subthreshold Leakage with power gating = 0.00363852 W
                Gate Leakage = 0.000434043 W
                Runtime Dynamic = 4.08092e-05 W

              FP Instruction Window:
                Area = 0.328073 mm^2
                Peak Dynamic = 1.20978 W
                Subthreshold Leakage = 0.017004 W
                Subthreshold Leakage with power gating = 0.00962066 W
                Gate Leakage = 0.00115349 W
                Runtime Dynamic = 0.000118083 W

              ROB:
                Area = 0.841232 mm^2
                Peak Dynamic = 1.55892 W
                Subthreshold Leakage = 0.0178624 W
                Subthreshold Leakage with power gating = 0.00897339 W
                Gate Leakage = 0.000856399 W
                Runtime Dynamic = 0.000131351 W

          Integer ALUs (Count: 6 ):
            Area = 0.47087 mm^2
            Peak Dynamic = 0.000116367 W
            Subthreshold Leakage = 0.40222 W
            Subthreshold Leakage with power gating = 0.150833 W
            Gate Leakage = 0.0265291 W
            Runtime Dynamic = 0.101451 W

          Floating Point Units (FPUs) (Count: 2 ):
            Area = 4.6585 mm^2
            Peak Dynamic = 0 W
            Subthreshold Leakage = 0.994829 W
            Subthreshold Leakage with power gating = 0.373061 W
            Gate Leakage = 0.0656156 W
            Runtime Dynamic = 0.304033 W

          Complex ALUs (Mul/Div) (Count: 1 ):
            Area = 0.235435 mm^2
            Peak Dynamic = 0 W
            Subthreshold Leakage = 0.20111 W
            Subthreshold Leakage with power gating = 0.0754163 W
            Gate Leakage = 0.0132646 W
            Runtime Dynamic = 0.202689 W

          Results Broadcast Bus:
            Area Overhead = 0.0436135 mm^2
            Peak Dynamic = 7.18222e-05 W
            Subthreshold Leakage = 0.0911921 W
            Subthreshold Leakage with power gating = 0.034197 W
            Gate Leakage = 0.00601473 W
            Runtime Dynamic = 0.000205944 W

    L2
    Area = 4.53318 mm^2
    Peak Dynamic = 1.52679e-05 W
    Subthreshold Leakage = 0.834142 W
    Subthreshold Leakage with power gating = 0.401066 W
    Gate Leakage = 0.015464 W
    Runtime Dynamic = 6.08603e-06 W

*****************************************************************************************
Core:
      Area = 30.445 mm^2
      Peak Dynamic = 7.95547 W
      Subthreshold Leakage = 5.89985 W
      Subthreshold Leakage with power gating = 2.40096 W
      Gate Leakage = 0.350117 W
      Runtime Dynamic = 0.608805 W

      Instruction Fetch Unit:
        Area = 4.59444 mm^2
        Peak Dynamic = 2.21893 W
        Subthreshold Leakage = 0.751292 W
        Subthreshold Leakage with power gating = 0.305204 W
        Gate Leakage = 0.0470923 W
        Runtime Dynamic = 0.000121099 W

          Instruction Cache:
            Area = 1.88071 mm^2
            Peak Dynamic = 0.000365998 W
            Subthreshold Leakage = 0.185726 W
            Subthreshold Leakage with power gating = 0.0770478 W
            Gate Leakage = 0.0179754 W
            Runtime Dynamic = 4.82969e-05 W

          Branch Target Buffer:
            Area = 0.64954 mm^2
            Peak Dynamic = 0.177867 W
            Subthreshold Leakage = 0.0811682 W
            Subthreshold Leakage with power gating = 0.0435357 W
            Gate Leakage = 0.00272758 W
            Runtime Dynamic = 4.46415e-06 W

          Branch Predictor:
            Area = 0.138516 mm^2
            Peak Dynamic = 0.0597838 W
            Subthreshold Leakage = 0.0199703 W
            Subthreshold Leakage with power gating = 0.0103282 W
            Gate Leakage = 0.000757657 W
            Runtime Dynamic = 1.57828e-06 W

              Global Predictor:
                Area = 0.0435221 mm^2
                Peak Dynamic = 0.0168831 W
                Subthreshold Leakage = 0.00759719 W
                Subthreshold Leakage with power gating = 0.0039236 W
                Gate Leakage = 0.000278362 W
                Runtime Dynamic = 4.70265e-07 W

              Local Predictor:
              L1_Local Predictor:
                Area = 0.0257064 mm^2
                Peak Dynamic = 0.0142575 W
                Subthreshold Leakage = 0.00384344 W
                Subthreshold Leakage with power gating = 0.00198631 W
                Gate Leakage = 0.000154548 W
                Runtime Dynamic = 4.10852e-07 W

              L2_Local Predictor:
                Area = 0.0151917 mm^2
                Peak Dynamic = 0.00527447 W
                Subthreshold Leakage = 0.00181347 W
                Subthreshold Leakage with power gating = 0.000957045 W
                Gate Leakage = 8.00196e-05 W
                Runtime Dynamic = 1.59732e-07 W

              Chooser:
                Area = 0.0435221 mm^2
                Peak Dynamic = 0.0168831 W
                Subthreshold Leakage = 0.00759719 W
                Subthreshold Leakage with power gating = 0.0039236 W
                Gate Leakage = 0.000278362 W
                Runtime Dynamic = 4.70265e-07 W

              RAS:
                Area = 0.0105732 mm^2
                Peak Dynamic = 0.0117602 W
                Subthreshold Leakage = 0.000932505 W
                Subthreshold Leakage with power gating = 0.000494733 W
                Gate Leakage = 4.63858e-05 W
                Runtime Dynamic = 2.26899e-07 W

          Instruction Buffer:
            Area = 0.0226323 mm^2
            Peak Dynamic = 0.606827 W
            Subthreshold Leakage = 0.00151885 W
            Subthreshold Leakage with power gating = 0.000701682 W
            Gate Leakage = 6.83558e-05 W
            Runtime Dynamic = 1.51848e-05 W

          Instruction Decoder:
            Area = 1.85799 mm^2
            Peak Dynamic = 1.37404 W
            Subthreshold Leakage = 0.442943 W
            Subthreshold Leakage with power gating = 0.166104 W
            Gate Leakage = 0.0222493 W
            Runtime Dynamic = 5.15745e-05 W

      Renaming Unit:
        Area = 0.0865297 mm^2
        Peak Dynamic = 1.02911 W
        Subthreshold Leakage = 0.020636 W
        Subthreshold Leakage with power gating = 0.00786506 W
        Gate Leakage = 0.00335557 W
        Runtime Dynamic = 1.9828e-05 W

          Int Front End RAT:
            Area = 0 mm^2
            Peak Dynamic = 0.447984 W
            Subthreshold Leakage = 0 W
            Subthreshold Leakage with power gating = -nan W
            Gate Leakage = 0 W
            Runtime Dynamic = 1.68151e-05 W

          FP Front End RAT:
            Area = 0 mm^2
            Peak Dynamic = 0.223992 W
            Subthreshold Leakage = 0 W
            Subthreshold Leakage with power gating = -nan W
            Gate Leakage = 0 W
            Runtime Dynamic = 0 W

          Free List:
            Area = 0.0414755 mm^2
            Peak Dynamic = 0.0401324 W
            Subthreshold Leakage = 0.000670426 W
            Subthreshold Leakage with power gating = 0.000377987 W
            Gate Leakage = 4.15911e-05 W
            Runtime Dynamic = 3.01274e-06 W

      Load Store Unit:
        Area = 8.80969 mm^2
        Peak Dynamic = 1.23757 W
        Subthreshold Leakage = 0.591622 W
        Subthreshold Leakage with power gating = 0.283406 W
        Gate Leakage = 0.0351387 W
        Runtime Dynamic = 0.000268093 W

          Data Cache:
            Area = 6.84535 mm^2
            Peak Dynamic = 1.23751 W
            Subthreshold Leakage = 0.527675 W
            Subthreshold Leakage with power gating = 0.25085 W
            Gate Leakage = 0.0279261 W
            Runtime Dynamic = 0.000192602 W

          LoadQ:
            Area = 0.0836782 mm^2
            Peak Dynamic = 1.26738e-05 W
            Subthreshold Leakage = 0.00941961 W
            Subthreshold Leakage with power gating = 0.00536918 W
            Gate Leakage = 0.00059896 W
            Runtime Dynamic = 1.27267e-05 W

          StoreQ:
            Area = 0.322079 mm^2
            Peak Dynamic = 3.12514e-05 W
            Subthreshold Leakage = 0.0345621 W
            Subthreshold Leakage with power gating = 0.0197004 W
            Gate Leakage = 0.00329971 W
            Runtime Dynamic = 6.27637e-05 W

      Memory Management Unit:
        Area = 0.346606 mm^2
        Peak Dynamic = 0.158566 W
        Subthreshold Leakage = 0.0613414 W
        Subthreshold Leakage with power gating = 0.0310713 W
        Gate Leakage = 0.00724862 W
        Runtime Dynamic = 8.11044e-06 W

          Itlb:
            Area = 0.301552 mm^2
            Peak Dynamic = 5.99992e-05 W
            Subthreshold Leakage = 0.0413758 W
            Subthreshold Leakage with power gating = 0.0235842 W
            Gate Leakage = 0.00393464 W
            Runtime Dynamic = 8.11031e-06 W

          Dtlb:
            Area = 0 mm^2
            Peak Dynamic = 0 W
            Subthreshold Leakage = 0 W
            Subthreshold Leakage with power gating = -nan W
            Gate Leakage = 0 W
            Runtime Dynamic = 0 W

      Execution Unit:
        Area = 7.67783 mm^2
        Peak Dynamic = 3.31129 W
        Subthreshold Leakage = 1.76298 W
        Subthreshold Leakage with power gating = 0.66816 W
        Gate Leakage = 0.117962 W
        Runtime Dynamic = 0.608385 W

          Register Files:
            Area = 0.725346 mm^2
            Peak Dynamic = 1.54303e-05 W
            Subthreshold Leakage = 0.0122835 W
            Subthreshold Leakage with power gating = 0.00493351 W
            Gate Leakage = 0.00077984 W
            Runtime Dynamic = 1.84283e-05 W

              Integer RF:
                Area = 0.362673 mm^2
                Peak Dynamic = 1.54303e-05 W
                Subthreshold Leakage = 0.00614175 W
                Subthreshold Leakage with power gating = 0.00246675 W
                Gate Leakage = 0.00038992 W
                Runtime Dynamic = 1.57957e-05 W

              Floating Point RF:
                Area = 0.362673 mm^2
                Peak Dynamic = 0 W
                Subthreshold Leakage = 0.00614175 W
                Subthreshold Leakage with power gating = 0.00246675 W
                Gate Leakage = 0.00038992 W
                Runtime Dynamic = 2.63261e-06 W

          Instruction Scheduler:
            Area = 1.49901 mm^2
            Peak Dynamic = 3.31117 W
            Subthreshold Leakage = 0.0413754 W
            Subthreshold Leakage with power gating = 0.0222326 W
            Gate Leakage = 0.00244394 W
            Runtime Dynamic = 0.000144843 W

              Instruction Window:
                Area = 0.329703 mm^2
                Peak Dynamic = 0.542479 W
                Subthreshold Leakage = 0.006509 W
                Subthreshold Leakage with power gating = 0.00363852 W
                Gate Leakage = 0.000434043 W
                Runtime Dynamic = 2.03619e-05 W

              FP Instruction Window:
                Area = 0.328073 mm^2
                Peak Dynamic = 1.20978 W
                Subthreshold Leakage = 0.017004 W
                Subthreshold Leakage with power gating = 0.00962066 W
                Gate Leakage = 0.00115349 W
                Runtime Dynamic = 5.8918e-05 W

              ROB:
                Area = 0.841232 mm^2
                Peak Dynamic = 1.55892 W
                Subthreshold Leakage = 0.0178624 W
                Subthreshold Leakage with power gating = 0.00897339 W
                Gate Leakage = 0.000856399 W
                Runtime Dynamic = 6.55635e-05 W

          Integer ALUs (Count: 6 ):
            Area = 0.47087 mm^2
            Peak Dynamic = 5.81837e-05 W
            Subthreshold Leakage = 0.40222 W
            Subthreshold Leakage with power gating = 0.150833 W
            Gate Leakage = 0.0265291 W
            Runtime Dynamic = 0.101397 W

          Floating Point Units (FPUs) (Count: 2 ):
            Area = 4.6585 mm^2
            Peak Dynamic = 0 W
            Subthreshold Leakage = 0.994829 W
            Subthreshold Leakage with power gating = 0.373061 W
            Gate Leakage = 0.0656156 W
            Runtime Dynamic = 0.304033 W

          Complex ALUs (Mul/Div) (Count: 1 ):
            Area = 0.235435 mm^2
            Peak Dynamic = 0 W
            Subthreshold Leakage = 0.20111 W
            Subthreshold Leakage with power gating = 0.0754163 W
            Gate Leakage = 0.0132646 W
            Runtime Dynamic = 0.202689 W

          Results Broadcast Bus:
            Area Overhead = 0.0436135 mm^2
            Peak Dynamic = 3.59111e-05 W
            Subthreshold Leakage = 0.0911921 W
            Subthreshold Leakage with power gating = 0.034197 W
            Gate Leakage = 0.00601473 W
            Runtime Dynamic = 0.000102799 W

    L2
    Area = 4.53318 mm^2
    Peak Dynamic = 1.01786e-05 W
    Subthreshold Leakage = 0.834142 W
    Subthreshold Leakage with power gating = 0.401066 W
    Gate Leakage = 0.015464 W
    Runtime Dynamic = 2.84424e-06 W

*****************************************************************************************
Core:
      Area = 30.445 mm^2
      Peak Dynamic = 7.95497 W
      Subthreshold Leakage = 5.89985 W
      Subthreshold Leakage with power gating = 2.40096 W
      Gate Leakage = 0.350117 W
      Runtime Dynamic = 0.608453 W

      Instruction Fetch Unit:
        Area = 4.59444 mm^2
        Peak Dynamic = 2.21873 W
        Subthreshold Leakage = 0.751292 W
        Subthreshold Leakage with power gating = 0.305204 W
        Gate Leakage = 0.0470923 W
        Runtime Dynamic = 6.30783e-05 W

          Instruction Cache:
            Area = 1.88071 mm^2
            Peak Dynamic = 0.000192759 W
            Subthreshold Leakage = 0.185726 W
            Subthreshold Leakage with power gating = 0.0770478 W
            Gate Leakage = 0.0179754 W
            Runtime Dynamic = 2.49587e-05 W

          Branch Target Buffer:
            Area = 0.64954 mm^2
            Peak Dynamic = 0.177867 W
            Subthreshold Leakage = 0.0811682 W
            Subthreshold Leakage with power gating = 0.0435357 W
            Gate Leakage = 0.00272758 W
            Runtime Dynamic = 2.34494e-06 W

          Branch Predictor:
            Area = 0.138516 mm^2
            Peak Dynamic = 0.0597838 W
            Subthreshold Leakage = 0.0199703 W
            Subthreshold Leakage with power gating = 0.0103282 W
            Gate Leakage = 0.000757657 W
            Runtime Dynamic = 8.35032e-07 W

              Global Predictor:
                Area = 0.0435221 mm^2
                Peak Dynamic = 0.0168831 W
                Subthreshold Leakage = 0.00759719 W
                Subthreshold Leakage with power gating = 0.0039236 W
                Gate Leakage = 0.000278362 W
                Runtime Dynamic = 2.4907e-07 W

              Local Predictor:
              L1_Local Predictor:
                Area = 0.0257064 mm^2
                Peak Dynamic = 0.0142575 W
                Subthreshold Leakage = 0.00384344 W
                Subthreshold Leakage with power gating = 0.00198631 W
                Gate Leakage = 0.000154548 W
                Runtime Dynamic = 2.18147e-07 W

              L2_Local Predictor:
                Area = 0.0151917 mm^2
                Peak Dynamic = 0.00527447 W
                Subthreshold Leakage = 0.00181347 W
                Subthreshold Leakage with power gating = 0.000957045 W
                Gate Leakage = 8.00196e-05 W
                Runtime Dynamic = 8.51085e-08 W

              Chooser:
                Area = 0.0435221 mm^2
                Peak Dynamic = 0.0168831 W
                Subthreshold Leakage = 0.00759719 W
                Subthreshold Leakage with power gating = 0.0039236 W
                Gate Leakage = 0.000278362 W
                Runtime Dynamic = 2.4907e-07 W

              RAS:
                Area = 0.0105732 mm^2
                Peak Dynamic = 0.0117602 W
                Subthreshold Leakage = 0.000932505 W
                Subthreshold Leakage with power gating = 0.000494733 W
                Gate Leakage = 4.63858e-05 W
                Runtime Dynamic = 1.18744e-07 W

          Instruction Buffer:
            Area = 0.0226323 mm^2
            Peak Dynamic = 0.606827 W
            Subthreshold Leakage = 0.00151885 W
            Subthreshold Leakage with power gating = 0.000701682 W
            Gate Leakage = 6.83558e-05 W
            Runtime Dynamic = 7.94721e-06 W

          Instruction Decoder:
            Area = 1.85799 mm^2
            Peak Dynamic = 1.37404 W
            Subthreshold Leakage = 0.442943 W
            Subthreshold Leakage with power gating = 0.166104 W
            Gate Leakage = 0.0222493 W
            Runtime Dynamic = 2.69923e-05 W

      Renaming Unit:
        Area = 0.0865297 mm^2
        Peak Dynamic = 1.02911 W
        Subthreshold Leakage = 0.020636 W
        Subthreshold Leakage with power gating = 0.00786506 W
        Gate Leakage = 0.00335557 W
        Runtime Dynamic = 1.03773e-05 W

          Int Front End RAT:
            Area = 0 mm^2
            Peak Dynamic = 0.447984 W
            Subthreshold Leakage = 0 W
            Subthreshold Leakage with power gating = -nan W
            Gate Leakage = 0 W
            Runtime Dynamic = 8.80044e-06 W

          FP Front End RAT:
            Area = 0 mm^2
            Peak Dynamic = 0.223992 W
            Subthreshold Leakage = 0 W
            Subthreshold Leakage with power gating = -nan W
            Gate Leakage = 0 W
            Runtime Dynamic = 0 W

          Free List:
            Area = 0.0414755 mm^2
            Peak Dynamic = 0.0401324 W
            Subthreshold Leakage = 0.000670426 W
            Subthreshold Leakage with power gating = 0.000377987 W
            Gate Leakage = 4.15911e-05 W
            Runtime Dynamic = 1.57676e-06 W

      Load Store Unit:
        Area = 8.80969 mm^2
        Peak Dynamic = 1.23736 W
        Subthreshold Leakage = 0.591622 W
        Subthreshold Leakage with power gating = 0.283406 W
        Gate Leakage = 0.0351387 W
        Runtime Dynamic = 0.000141368 W

          Data Cache:
            Area = 6.84535 mm^2
            Peak Dynamic = 1.23733 W
            Subthreshold Leakage = 0.527675 W
            Subthreshold Leakage with power gating = 0.25085 W
            Gate Leakage = 0.0279261 W
            Runtime Dynamic = 0.000101527 W

          LoadQ:
            Area = 0.0836782 mm^2
            Peak Dynamic = 6.70964e-06 W
            Subthreshold Leakage = 0.00941961 W
            Subthreshold Leakage with power gating = 0.00536918 W
            Gate Leakage = 0.00059896 W
            Runtime Dynamic = 6.71655e-06 W

          StoreQ:
            Area = 0.322079 mm^2
            Peak Dynamic = 1.65448e-05 W
            Subthreshold Leakage = 0.0345621 W
            Subthreshold Leakage with power gating = 0.0197004 W
            Gate Leakage = 0.00329971 W
            Runtime Dynamic = 3.31238e-05 W

      Memory Management Unit:
        Area = 0.346606 mm^2
        Peak Dynamic = 0.158534 W
        Subthreshold Leakage = 0.0613414 W
        Subthreshold Leakage with power gating = 0.0310713 W
        Gate Leakage = 0.00724862 W
        Runtime Dynamic = 4.21658e-06 W

          Itlb:
            Area = 0.301552 mm^2
            Peak Dynamic = 3.15996e-05 W
            Subthreshold Leakage = 0.0413758 W
            Subthreshold Leakage with power gating = 0.0235842 W
            Gate Leakage = 0.00393464 W
            Runtime Dynamic = 4.21645e-06 W

          Dtlb:
            Area = 0 mm^2
            Peak Dynamic = 0 W
            Subthreshold Leakage = 0 W
            Subthreshold Leakage with power gating = -nan W
            Gate Leakage = 0 W
            Runtime Dynamic = 0 W

      Execution Unit:
        Area = 7.67783 mm^2
        Peak Dynamic = 3.31123 W
        Subthreshold Leakage = 1.76298 W
        Subthreshold Leakage with power gating = 0.66816 W
        Gate Leakage = 0.117962 W
        Runtime Dynamic = 0.608233 W

          Register Files:
            Area = 0.725346 mm^2
            Peak Dynamic = 8.02376e-06 W
            Subthreshold Leakage = 0.0122835 W
            Subthreshold Leakage with power gating = 0.00493351 W
            Gate Leakage = 0.00077984 W
            Runtime Dynamic = 9.64472e-06 W

              Integer RF:
                Area = 0.362673 mm^2
                Peak Dynamic = 8.02376e-06 W
                Subthreshold Leakage = 0.00614175 W
                Subthreshold Leakage with power gating = 0.00246675 W
                Gate Leakage = 0.00038992 W
                Runtime Dynamic = 8.26692e-06 W

              Floating Point RF:
                Area = 0.362673 mm^2
                Peak Dynamic = 0 W
                Subthreshold Leakage = 0.00614175 W
                Subthreshold Leakage with power gating = 0.00246675 W
                Gate Leakage = 0.00038992 W
                Runtime Dynamic = 1.3778e-06 W

          Instruction Scheduler:
            Area = 1.49901 mm^2
            Peak Dynamic = 3.31117 W
            Subthreshold Leakage = 0.0413754 W
            Subthreshold Leakage with power gating = 0.0222326 W
            Gate Leakage = 0.00244394 W
            Runtime Dynamic = 7.57481e-05 W

              Instruction Window:
                Area = 0.329703 mm^2
                Peak Dynamic = 0.542479 W
                Subthreshold Leakage = 0.006509 W
                Subthreshold Leakage with power gating = 0.00363852 W
                Gate Leakage = 0.000434043 W
                Runtime Dynamic = 1.06567e-05 W

              FP Instruction Window:
                Area = 0.328073 mm^2
                Peak Dynamic = 1.20978 W
                Subthreshold Leakage = 0.017004 W
                Subthreshold Leakage with power gating = 0.00962066 W
                Gate Leakage = 0.00115349 W
                Runtime Dynamic = 3.08356e-05 W

              ROB:
                Area = 0.841232 mm^2
                Peak Dynamic = 1.55892 W
                Subthreshold Leakage = 0.0178624 W
                Subthreshold Leakage with power gating = 0.00897339 W
                Gate Leakage = 0.000856399 W
                Runtime Dynamic = 3.42557e-05 W

          Integer ALUs (Count: 6 ):
            Area = 0.47087 mm^2
            Peak Dynamic = 3.02555e-05 W
            Subthreshold Leakage = 0.40222 W
            Subthreshold Leakage with power gating = 0.150833 W
            Gate Leakage = 0.0265291 W
            Runtime Dynamic = 0.101372 W

          Floating Point Units (FPUs) (Count: 2 ):
            Area = 4.6585 mm^2
            Peak Dynamic = 0 W
            Subthreshold Leakage = 0.994829 W
            Subthreshold Leakage with power gating = 0.373061 W
            Gate Leakage = 0.0656156 W
            Runtime Dynamic = 0.304033 W

          Complex ALUs (Mul/Div) (Count: 1 ):
            Area = 0.235435 mm^2
            Peak Dynamic = 0 W
            Subthreshold Leakage = 0.20111 W
            Subthreshold Leakage with power gating = 0.0754163 W
            Gate Leakage = 0.0132646 W
            Runtime Dynamic = 0.202689 W

          Results Broadcast Bus:
            Area Overhead = 0.0436135 mm^2
            Peak Dynamic = 1.86738e-05 W
            Subthreshold Leakage = 0.0911921 W
            Subthreshold Leakage with power gating = 0.034197 W
            Gate Leakage = 0.00601473 W
            Runtime Dynamic = 5.36601e-05 W

    L2
    Area = 4.53318 mm^2
    Peak Dynamic = 5.0893e-06 W
    Subthreshold Leakage = 0.834142 W
    Subthreshold Leakage with power gating = 0.401066 W
    Gate Leakage = 0.015464 W
    Runtime Dynamic = 1.28352e-06 W

*****************************************************************************************
      L3
      Area = 61.9075 mm^2
      Peak Dynamic = 0.000228712 W
      Subthreshold Leakage = 6.80085 W
      Subthreshold Leakage with power gating = 3.32364 W
      Gate Leakage = 0.0484137 W
      Runtime Dynamic = 0.000186938 W

*****************************************************************************************
      L3
      Area = 61.9075 mm^2
      Peak Dynamic = 6.53464e-05 W
      Subthreshold Leakage = 6.80085 W
      Subthreshold Leakage with power gating = 3.32364 W
      Gate Leakage = 0.0484137 W
      Runtime Dynamic = 4.18286e-05 W

*****************************************************************************************
BUSES
      Area = 3.61971 mm^2
      Peak Dynamic = 0.00175747 W
      Subthreshold Leakage = 0.101262 W
      Subthreshold Leakage with power gating = 0.0379732 W
      Gate Leakage = 0.00971065 W
      Runtime Dynamic = 0.000195127 W

      Bus: 
        Area = 3.61971 mm^2
        Peak Dynamic = 0.00175747 W
        Subthreshold Leakage = 0.101262 W
        Subthreshold Leakage with power gating = 0.0379732 W
        Gate Leakage = 0.00971065 W
        Runtime Dynamic = 0.000195127 W

*****************************************************************************************
