McPAT (version 1.0 of Aug, 2013) is computing the target processor...
 

McPAT (version 1.0 of Aug, 2013) results  (current print level is 5)
*****************************************************************************************
  Technology 45 nm
  Using Long Channel Devices When Appropriate
  Interconnect metal projection= aggressive interconnect technology projection
  Core clock Rate(MHz) 2660

*****************************************************************************************
Processor: 
  Area = 370.995 mm^2
  Peak Power = 141.005 W
  Total Leakage = 63.8093 W
  Peak Dynamic = 77.1958 W
  Subthreshold Leakage = 60.9018 W
  Subthreshold Leakage with power gating = 26.6652 W
  Gate Leakage = 2.90748 W
  Runtime Dynamic = 16.4713 W

  Total Cores: 8 cores 
  Device Type= ITRS high performance device type
    Area = 243.56 mm^2
    Peak Dynamic = 77.194 W
    Subthreshold Leakage = 47.1988 W
    Subthreshold Leakage with power gating = 19.2077 W
    Gate Leakage = 2.80094 W
    Runtime Dynamic = 16.4709 W

  Total L3s: 
  Device Type= ITRS high performance device type
    Area = 123.815 mm^2
    Peak Dynamic = 0.000261385 W
    Subthreshold Leakage = 13.6017 W
    Subthreshold Leakage with power gating = 6.64728 W
    Gate Leakage = 0.0968273 W
    Runtime Dynamic = 0.000204758 W

  Total NoCs (Network/Bus): 
  Device Type= ITRS high performance device type
    Area = 3.61971 mm^2
    Peak Dynamic = 0.0015496 W
    Subthreshold Leakage = 0.101262 W
    Subthreshold Leakage with power gating = 0.0379732 W
    Gate Leakage = 0.00971065 W
    Runtime Dynamic = 0.000171925 W

*****************************************************************************************
Core:
      Area = 30.445 mm^2
      Peak Dynamic = 21.5086 W
      Subthreshold Leakage = 5.89985 W
      Subthreshold Leakage with power gating = 2.40096 W
      Gate Leakage = 0.350117 W
      Runtime Dynamic = 12.2113 W

      Instruction Fetch Unit:
        Area = 4.59444 mm^2
        Peak Dynamic = 4.9755 W
        Subthreshold Leakage = 0.751292 W
        Subthreshold Leakage with power gating = 0.305204 W
        Gate Leakage = 0.0470923 W
        Runtime Dynamic = 1.68589 W

          Instruction Cache:
            Area = 1.88071 mm^2
            Peak Dynamic = 2.43999 W
            Subthreshold Leakage = 0.185726 W
            Subthreshold Leakage with power gating = 0.0770478 W
            Gate Leakage = 0.0179754 W
            Runtime Dynamic = 0.847277 W

          Branch Target Buffer:
            Area = 0.64954 mm^2
            Peak Dynamic = 0.177867 W
            Subthreshold Leakage = 0.0811682 W
            Subthreshold Leakage with power gating = 0.0435357 W
            Gate Leakage = 0.00272758 W
            Runtime Dynamic = 0.0597657 W

          Branch Predictor:
            Area = 0.138516 mm^2
            Peak Dynamic = 0.0597838 W
            Subthreshold Leakage = 0.0199703 W
            Subthreshold Leakage with power gating = 0.0103282 W
            Gate Leakage = 0.000757657 W
            Runtime Dynamic = 0.0200933 W

              Global Predictor:
                Area = 0.0435221 mm^2
                Peak Dynamic = 0.0168831 W
                Subthreshold Leakage = 0.00759719 W
                Subthreshold Leakage with power gating = 0.0039236 W
                Gate Leakage = 0.000278362 W
                Runtime Dynamic = 0.00611183 W

              Local Predictor:
              L1_Local Predictor:
                Area = 0.0257064 mm^2
                Peak Dynamic = 0.0142575 W
                Subthreshold Leakage = 0.00384344 W
                Subthreshold Leakage with power gating = 0.00198631 W
                Gate Leakage = 0.000154548 W
                Runtime Dynamic = 0.00529076 W

              L2_Local Predictor:
                Area = 0.0151917 mm^2
                Peak Dynamic = 0.00527447 W
                Subthreshold Leakage = 0.00181347 W
                Subthreshold Leakage with power gating = 0.000957045 W
                Gate Leakage = 8.00196e-05 W
                Runtime Dynamic = 0.00203029 W

              Chooser:
                Area = 0.0435221 mm^2
                Peak Dynamic = 0.0168831 W
                Subthreshold Leakage = 0.00759719 W
                Subthreshold Leakage with power gating = 0.0039236 W
                Gate Leakage = 0.000278362 W
                Runtime Dynamic = 0.00611183 W

              RAS:
                Area = 0.0105732 mm^2
                Peak Dynamic = 0.0117602 W
                Subthreshold Leakage = 0.000932505 W
                Subthreshold Leakage with power gating = 0.000494733 W
                Gate Leakage = 4.63858e-05 W
                Runtime Dynamic = 0.00257891 W

          Instruction Buffer:
            Area = 0.0226323 mm^2
            Peak Dynamic = 0.606827 W
            Subthreshold Leakage = 0.00151885 W
            Subthreshold Leakage with power gating = 0.000701682 W
            Gate Leakage = 6.83558e-05 W
            Runtime Dynamic = 0.172583 W

          Instruction Decoder:
            Area = 1.85799 mm^2
            Peak Dynamic = 1.37404 W
            Subthreshold Leakage = 0.442943 W
            Subthreshold Leakage with power gating = 0.166104 W
            Gate Leakage = 0.0222493 W
            Runtime Dynamic = 0.58617 W

      Renaming Unit:
        Area = 0.0865297 mm^2
        Peak Dynamic = 1.02911 W
        Subthreshold Leakage = 0.020636 W
        Subthreshold Leakage with power gating = 0.00786506 W
        Gate Leakage = 0.00335557 W
        Runtime Dynamic = 0.225371 W

          Int Front End RAT:
            Area = 0 mm^2
            Peak Dynamic = 0.447984 W
            Subthreshold Leakage = 0 W
            Subthreshold Leakage with power gating = -nan W
            Gate Leakage = 0 W
            Runtime Dynamic = 0.191112 W

          FP Front End RAT:
            Area = 0 mm^2
            Peak Dynamic = 0.223992 W
            Subthreshold Leakage = 0 W
            Subthreshold Leakage with power gating = -nan W
            Gate Leakage = 0 W
            Runtime Dynamic = 1.48422e-05 W

          Free List:
            Area = 0.0414755 mm^2
            Peak Dynamic = 0.0401324 W
            Subthreshold Leakage = 0.000670426 W
            Subthreshold Leakage with power gating = 0.000377987 W
            Gate Leakage = 4.15911e-05 W
            Runtime Dynamic = 0.034244 W

      Load Store Unit:
        Area = 8.80969 mm^2
        Peak Dynamic = 10.0966 W
        Subthreshold Leakage = 0.591622 W
        Subthreshold Leakage with power gating = 0.283406 W
        Gate Leakage = 0.0351387 W
        Runtime Dynamic = 5.87298 W

          Data Cache:
            Area = 6.84535 mm^2
            Peak Dynamic = 8.91832 W
            Subthreshold Leakage = 0.527675 W
            Subthreshold Leakage with power gating = 0.25085 W
            Gate Leakage = 0.0279261 W
            Runtime Dynamic = 4.19545 W

          LoadQ:
            Area = 0.0836782 mm^2
            Peak Dynamic = 0.248505 W
            Subthreshold Leakage = 0.00941961 W
            Subthreshold Leakage with power gating = 0.00536918 W
            Gate Leakage = 0.00059896 W
            Runtime Dynamic = 0.282809 W

          StoreQ:
            Area = 0.322079 mm^2
            Peak Dynamic = 0.612772 W
            Subthreshold Leakage = 0.0345621 W
            Subthreshold Leakage with power gating = 0.0197004 W
            Gate Leakage = 0.00329971 W
            Runtime Dynamic = 1.39472 W

      Memory Management Unit:
        Area = 0.346606 mm^2
        Peak Dynamic = 0.716991 W
        Subthreshold Leakage = 0.0613414 W
        Subthreshold Leakage with power gating = 0.0310713 W
        Gate Leakage = 0.00724862 W
        Runtime Dynamic = 0.140774 W

          Itlb:
            Area = 0.301552 mm^2
            Peak Dynamic = 0.399995 W
            Subthreshold Leakage = 0.0413758 W
            Subthreshold Leakage with power gating = 0.0235842 W
            Gate Leakage = 0.00393464 W
            Runtime Dynamic = 0.140774 W

          Dtlb:
            Area = 0 mm^2
            Peak Dynamic = 0 W
            Subthreshold Leakage = 0 W
            Subthreshold Leakage with power gating = -nan W
            Gate Leakage = 0 W
            Runtime Dynamic = 0 W

      Execution Unit:
        Area = 7.67783 mm^2
        Peak Dynamic = 4.64802 W
        Subthreshold Leakage = 1.76298 W
        Subthreshold Leakage with power gating = 0.66816 W
        Gate Leakage = 0.117962 W
        Runtime Dynamic = 4.27739 W

          Register Files:
            Area = 0.725346 mm^2
            Peak Dynamic = 0.175676 W
            Subthreshold Leakage = 0.0122835 W
            Subthreshold Leakage with power gating = 0.00493351 W
            Gate Leakage = 0.00077984 W
            Runtime Dynamic = 0.209447 W

              Integer RF:
                Area = 0.362673 mm^2
                Peak Dynamic = 0.175598 W
                Subthreshold Leakage = 0.00614175 W
                Subthreshold Leakage with power gating = 0.00246675 W
                Gate Leakage = 0.00038992 W
                Runtime Dynamic = 0.179526 W

              Floating Point RF:
                Area = 0.362673 mm^2
                Peak Dynamic = 7.83579e-05 W
                Subthreshold Leakage = 0.00614175 W
                Subthreshold Leakage with power gating = 0.00246675 W
                Gate Leakage = 0.00038992 W
                Runtime Dynamic = 0.0299211 W

          Instruction Scheduler:
            Area = 1.49901 mm^2
            Peak Dynamic = 3.31117 W
            Subthreshold Leakage = 0.0413754 W
            Subthreshold Leakage with power gating = 0.0222326 W
            Gate Leakage = 0.00244394 W
            Runtime Dynamic = 1.67171 W

              Instruction Window:
                Area = 0.329703 mm^2
                Peak Dynamic = 0.542479 W
                Subthreshold Leakage = 0.006509 W
                Subthreshold Leakage with power gating = 0.00363852 W
                Gate Leakage = 0.000434043 W
                Runtime Dynamic = 0.231424 W

              FP Instruction Window:
                Area = 0.328073 mm^2
                Peak Dynamic = 1.20978 W
                Subthreshold Leakage = 0.017004 W
                Subthreshold Leakage with power gating = 0.00962066 W
                Gate Leakage = 0.00115349 W
                Runtime Dynamic = 0.669633 W

              ROB:
                Area = 0.841232 mm^2
                Peak Dynamic = 1.55892 W
                Subthreshold Leakage = 0.0178624 W
                Subthreshold Leakage with power gating = 0.00897339 W
                Gate Leakage = 0.000856399 W
                Runtime Dynamic = 0.770652 W

          Integer ALUs (Count: 6 ):
            Area = 0.47087 mm^2
            Peak Dynamic = 0.661854 W
            Subthreshold Leakage = 0.40222 W
            Subthreshold Leakage with power gating = 0.150833 W
            Gate Leakage = 0.0265291 W
            Runtime Dynamic = 0.710252 W

          Floating Point Units (FPUs) (Count: 2 ):
            Area = 4.6585 mm^2
            Peak Dynamic = 0.000336495 W
            Subthreshold Leakage = 0.994829 W
            Subthreshold Leakage with power gating = 0.373061 W
            Gate Leakage = 0.0656156 W
            Runtime Dynamic = 0.30418 W

          Complex ALUs (Mul/Div) (Count: 1 ):
            Area = 0.235435 mm^2
            Peak Dynamic = 0.000125644 W
            Subthreshold Leakage = 0.20111 W
            Subthreshold Leakage with power gating = 0.0754163 W
            Gate Leakage = 0.0132646 W
            Runtime Dynamic = 0.202787 W

          Results Broadcast Bus:
            Area Overhead = 0.0436135 mm^2
            Peak Dynamic = 0.408705 W
            Subthreshold Leakage = 0.0911921 W
            Subthreshold Leakage with power gating = 0.034197 W
            Gate Leakage = 0.00601473 W
            Runtime Dynamic = 1.17902 W

    L2
    Area = 4.53318 mm^2
    Peak Dynamic = 0.0424091 W
    Subthreshold Leakage = 0.834142 W
    Subthreshold Leakage with power gating = 0.401066 W
    Gate Leakage = 0.015464 W
    Runtime Dynamic = 0.00892705 W

*****************************************************************************************
Core:
      Area = 30.445 mm^2
      Peak Dynamic = 7.95509 W
      Subthreshold Leakage = 5.89985 W
      Subthreshold Leakage with power gating = 2.40096 W
      Gate Leakage = 0.350117 W
      Runtime Dynamic = 0.60853 W

      Instruction Fetch Unit:
        Area = 4.59444 mm^2
        Peak Dynamic = 2.21877 W
        Subthreshold Leakage = 0.751292 W
        Subthreshold Leakage with power gating = 0.305204 W
        Gate Leakage = 0.0470923 W
        Runtime Dynamic = 7.38865e-05 W

          Instruction Cache:
            Area = 1.88071 mm^2
            Peak Dynamic = 0.000229359 W
            Subthreshold Leakage = 0.185726 W
            Subthreshold Leakage with power gating = 0.0770478 W
            Gate Leakage = 0.0179754 W
            Runtime Dynamic = 2.86362e-05 W

          Branch Target Buffer:
            Area = 0.64954 mm^2
            Peak Dynamic = 0.177867 W
            Subthreshold Leakage = 0.0811682 W
            Subthreshold Leakage with power gating = 0.0435357 W
            Gate Leakage = 0.00272758 W
            Runtime Dynamic = 2.67599e-06 W

          Branch Predictor:
            Area = 0.138516 mm^2
            Peak Dynamic = 0.0597838 W
            Subthreshold Leakage = 0.0199703 W
            Subthreshold Leakage with power gating = 0.0103282 W
            Gate Leakage = 0.000757657 W
            Runtime Dynamic = 9.59349e-07 W

              Global Predictor:
                Area = 0.0435221 mm^2
                Peak Dynamic = 0.0168831 W
                Subthreshold Leakage = 0.00759719 W
                Subthreshold Leakage with power gating = 0.0039236 W
                Gate Leakage = 0.000278362 W
                Runtime Dynamic = 2.84393e-07 W

              Local Predictor:
              L1_Local Predictor:
                Area = 0.0257064 mm^2
                Peak Dynamic = 0.0142575 W
                Subthreshold Leakage = 0.00384344 W
                Subthreshold Leakage with power gating = 0.00198631 W
                Gate Leakage = 0.000154548 W
                Runtime Dynamic = 2.49126e-07 W

              L2_Local Predictor:
                Area = 0.0151917 mm^2
                Peak Dynamic = 0.00527447 W
                Subthreshold Leakage = 0.00181347 W
                Subthreshold Leakage with power gating = 0.000957045 W
                Gate Leakage = 8.00196e-05 W
                Runtime Dynamic = 9.72177e-08 W

              Chooser:
                Area = 0.0435221 mm^2
                Peak Dynamic = 0.0168831 W
                Subthreshold Leakage = 0.00759719 W
                Subthreshold Leakage with power gating = 0.0039236 W
                Gate Leakage = 0.000278362 W
                Runtime Dynamic = 2.84393e-07 W

              RAS:
                Area = 0.0105732 mm^2
                Peak Dynamic = 0.0117602 W
                Subthreshold Leakage = 0.000932505 W
                Subthreshold Leakage with power gating = 0.000494733 W
                Gate Leakage = 4.63858e-05 W
                Runtime Dynamic = 1.41436e-07 W

          Instruction Buffer:
            Area = 0.0226323 mm^2
            Peak Dynamic = 0.606827 W
            Subthreshold Leakage = 0.00151885 W
            Subthreshold Leakage with power gating = 0.000701682 W
            Gate Leakage = 6.83558e-05 W
            Runtime Dynamic = 9.46555e-06 W

          Instruction Decoder:
            Area = 1.85799 mm^2
            Peak Dynamic = 1.37404 W
            Subthreshold Leakage = 0.442943 W
            Subthreshold Leakage with power gating = 0.166104 W
            Gate Leakage = 0.0222493 W
            Runtime Dynamic = 3.21492e-05 W

      Renaming Unit:
        Area = 0.0865297 mm^2
        Peak Dynamic = 1.02911 W
        Subthreshold Leakage = 0.020636 W
        Subthreshold Leakage with power gating = 0.00786506 W
        Gate Leakage = 0.00335557 W
        Runtime Dynamic = 1.23599e-05 W

          Int Front End RAT:
            Area = 0 mm^2
            Peak Dynamic = 0.447984 W
            Subthreshold Leakage = 0 W
            Subthreshold Leakage with power gating = -nan W
            Gate Leakage = 0 W
            Runtime Dynamic = 1.04818e-05 W

          FP Front End RAT:
            Area = 0 mm^2
            Peak Dynamic = 0.223992 W
            Subthreshold Leakage = 0 W
            Subthreshold Leakage with power gating = -nan W
            Gate Leakage = 0 W
            Runtime Dynamic = 0 W

          Free List:
            Area = 0.0414755 mm^2
            Peak Dynamic = 0.0401324 W
            Subthreshold Leakage = 0.000670426 W
            Subthreshold Leakage with power gating = 0.000377987 W
            Gate Leakage = 4.15911e-05 W
            Runtime Dynamic = 1.87801e-06 W

      Load Store Unit:
        Area = 8.80969 mm^2
        Peak Dynamic = 1.23741 W
        Subthreshold Leakage = 0.591622 W
        Subthreshold Leakage with power gating = 0.283406 W
        Gate Leakage = 0.0351387 W
        Runtime Dynamic = 0.00017183 W

          Data Cache:
            Area = 6.84535 mm^2
            Peak Dynamic = 1.23737 W
            Subthreshold Leakage = 0.527675 W
            Subthreshold Leakage with power gating = 0.25085 W
            Gate Leakage = 0.0279261 W
            Runtime Dynamic = 0.000123848 W

          LoadQ:
            Area = 0.0836782 mm^2
            Peak Dynamic = 8.20067e-06 W
            Subthreshold Leakage = 0.00941961 W
            Subthreshold Leakage with power gating = 0.00536918 W
            Gate Leakage = 0.00059896 W
            Runtime Dynamic = 8.08914e-06 W

          StoreQ:
            Area = 0.322079 mm^2
            Peak Dynamic = 2.02215e-05 W
            Subthreshold Leakage = 0.0345621 W
            Subthreshold Leakage with power gating = 0.0197004 W
            Gate Leakage = 0.00329971 W
            Runtime Dynamic = 3.98929e-05 W

      Memory Management Unit:
        Area = 0.346606 mm^2
        Peak Dynamic = 0.158541 W
        Subthreshold Leakage = 0.0613414 W
        Subthreshold Leakage with power gating = 0.0310713 W
        Gate Leakage = 0.00724862 W
        Runtime Dynamic = 4.82783e-06 W

          Itlb:
            Area = 0.301552 mm^2
            Peak Dynamic = 3.75995e-05 W
            Subthreshold Leakage = 0.0413758 W
            Subthreshold Leakage with power gating = 0.0235842 W
            Gate Leakage = 0.00393464 W
            Runtime Dynamic = 4.82771e-06 W

          Dtlb:
            Area = 0 mm^2
            Peak Dynamic = 0 W
            Subthreshold Leakage = 0 W
            Subthreshold Leakage with power gating = -nan W
            Gate Leakage = 0 W
            Runtime Dynamic = 0 W

      Execution Unit:
        Area = 7.67783 mm^2
        Peak Dynamic = 3.31125 W
        Subthreshold Leakage = 1.76298 W
        Subthreshold Leakage with power gating = 0.66816 W
        Gate Leakage = 0.117962 W
        Runtime Dynamic = 0.608264 W

          Register Files:
            Area = 0.725346 mm^2
            Peak Dynamic = 9.87539e-06 W
            Subthreshold Leakage = 0.0122835 W
            Subthreshold Leakage with power gating = 0.00493351 W
            Gate Leakage = 0.00077984 W
            Runtime Dynamic = 1.14874e-05 W

              Integer RF:
                Area = 0.362673 mm^2
                Peak Dynamic = 9.87539e-06 W
                Subthreshold Leakage = 0.00614175 W
                Subthreshold Leakage with power gating = 0.00246675 W
                Gate Leakage = 0.00038992 W
                Runtime Dynamic = 9.84635e-06 W

              Floating Point RF:
                Area = 0.362673 mm^2
                Peak Dynamic = 0 W
                Subthreshold Leakage = 0.00614175 W
                Subthreshold Leakage with power gating = 0.00246675 W
                Gate Leakage = 0.00038992 W
                Runtime Dynamic = 1.64105e-06 W

          Instruction Scheduler:
            Area = 1.49901 mm^2
            Peak Dynamic = 3.31117 W
            Subthreshold Leakage = 0.0413754 W
            Subthreshold Leakage with power gating = 0.0222326 W
            Gate Leakage = 0.00244394 W
            Runtime Dynamic = 9.00351e-05 W

              Instruction Window:
                Area = 0.329703 mm^2
                Peak Dynamic = 0.542479 W
                Subthreshold Leakage = 0.006509 W
                Subthreshold Leakage with power gating = 0.00363852 W
                Gate Leakage = 0.000434043 W
                Runtime Dynamic = 1.26927e-05 W

              FP Instruction Window:
                Area = 0.328073 mm^2
                Peak Dynamic = 1.20978 W
                Subthreshold Leakage = 0.017004 W
                Subthreshold Leakage with power gating = 0.00962066 W
                Gate Leakage = 0.00115349 W
                Runtime Dynamic = 3.67268e-05 W

              ROB:
                Area = 0.841232 mm^2
                Peak Dynamic = 1.55892 W
                Subthreshold Leakage = 0.0178624 W
                Subthreshold Leakage with power gating = 0.00897339 W
                Gate Leakage = 0.000856399 W
                Runtime Dynamic = 4.06155e-05 W

          Integer ALUs (Count: 6 ):
            Area = 0.47087 mm^2
            Peak Dynamic = 3.72376e-05 W
            Subthreshold Leakage = 0.40222 W
            Subthreshold Leakage with power gating = 0.150833 W
            Gate Leakage = 0.0265291 W
            Runtime Dynamic = 0.101377 W

          Floating Point Units (FPUs) (Count: 2 ):
            Area = 4.6585 mm^2
            Peak Dynamic = 0 W
            Subthreshold Leakage = 0.994829 W
            Subthreshold Leakage with power gating = 0.373061 W
            Gate Leakage = 0.0656156 W
            Runtime Dynamic = 0.304033 W

          Complex ALUs (Mul/Div) (Count: 1 ):
            Area = 0.235435 mm^2
            Peak Dynamic = 0 W
            Subthreshold Leakage = 0.20111 W
            Subthreshold Leakage with power gating = 0.0754163 W
            Gate Leakage = 0.0132646 W
            Runtime Dynamic = 0.202689 W

          Results Broadcast Bus:
            Area Overhead = 0.0436135 mm^2
            Peak Dynamic = 2.29831e-05 W
            Subthreshold Leakage = 0.0911921 W
            Subthreshold Leakage with power gating = 0.034197 W
            Gate Leakage = 0.00601473 W
            Runtime Dynamic = 6.40437e-05 W

    L2
    Area = 4.53318 mm^2
    Peak Dynamic = 1.01786e-05 W
    Subthreshold Leakage = 0.834142 W
    Subthreshold Leakage with power gating = 0.401066 W
    Gate Leakage = 0.015464 W
    Runtime Dynamic = 2.48222e-06 W

*****************************************************************************************
Core:
      Area = 30.445 mm^2
      Peak Dynamic = 7.95496 W
      Subthreshold Leakage = 5.89985 W
      Subthreshold Leakage with power gating = 2.40096 W
      Gate Leakage = 0.350117 W
      Runtime Dynamic = 0.608447 W

      Instruction Fetch Unit:
        Area = 4.59444 mm^2
        Peak Dynamic = 2.21872 W
        Subthreshold Leakage = 0.751292 W
        Subthreshold Leakage with power gating = 0.305204 W
        Gate Leakage = 0.0470923 W
        Runtime Dynamic = 6.18135e-05 W

          Instruction Cache:
            Area = 1.88071 mm^2
            Peak Dynamic = 0.000185439 W
            Subthreshold Leakage = 0.185726 W
            Subthreshold Leakage with power gating = 0.0770478 W
            Gate Leakage = 0.0179754 W
            Runtime Dynamic = 2.4763e-05 W

          Branch Target Buffer:
            Area = 0.64954 mm^2
            Peak Dynamic = 0.177867 W
            Subthreshold Leakage = 0.0811682 W
            Subthreshold Leakage with power gating = 0.0435357 W
            Gate Leakage = 0.00272758 W
            Runtime Dynamic = 2.25546e-06 W

          Branch Predictor:
            Area = 0.138516 mm^2
            Peak Dynamic = 0.0597838 W
            Subthreshold Leakage = 0.0199703 W
            Subthreshold Leakage with power gating = 0.0103282 W
            Gate Leakage = 0.000757657 W
            Runtime Dynamic = 8.04168e-07 W

              Global Predictor:
                Area = 0.0435221 mm^2
                Peak Dynamic = 0.0168831 W
                Subthreshold Leakage = 0.00759719 W
                Subthreshold Leakage with power gating = 0.0039236 W
                Gate Leakage = 0.000278362 W
                Runtime Dynamic = 2.39468e-07 W

              Local Predictor:
              L1_Local Predictor:
                Area = 0.0257064 mm^2
                Peak Dynamic = 0.0142575 W
                Subthreshold Leakage = 0.00384344 W
                Subthreshold Leakage with power gating = 0.00198631 W
                Gate Leakage = 0.000154548 W
                Runtime Dynamic = 2.09711e-07 W

              L2_Local Predictor:
                Area = 0.0151917 mm^2
                Peak Dynamic = 0.00527447 W
                Subthreshold Leakage = 0.00181347 W
                Subthreshold Leakage with power gating = 0.000957045 W
                Gate Leakage = 8.00196e-05 W
                Runtime Dynamic = 8.18031e-08 W

              Chooser:
                Area = 0.0435221 mm^2
                Peak Dynamic = 0.0168831 W
                Subthreshold Leakage = 0.00759719 W
                Subthreshold Leakage with power gating = 0.0039236 W
                Gate Leakage = 0.000278362 W
                Runtime Dynamic = 2.39468e-07 W

              RAS:
                Area = 0.0105732 mm^2
                Peak Dynamic = 0.0117602 W
                Subthreshold Leakage = 0.000932505 W
                Subthreshold Leakage with power gating = 0.000494733 W
                Gate Leakage = 4.63858e-05 W
                Runtime Dynamic = 1.15521e-07 W

          Instruction Buffer:
            Area = 0.0226323 mm^2
            Peak Dynamic = 0.606827 W
            Subthreshold Leakage = 0.00151885 W
            Subthreshold Leakage with power gating = 0.000701682 W
            Gate Leakage = 6.83558e-05 W
            Runtime Dynamic = 7.7314e-06 W

          Instruction Decoder:
            Area = 1.85799 mm^2
            Peak Dynamic = 1.37404 W
            Subthreshold Leakage = 0.442943 W
            Subthreshold Leakage with power gating = 0.166104 W
            Gate Leakage = 0.0222493 W
            Runtime Dynamic = 2.62593e-05 W

      Renaming Unit:
        Area = 0.0865297 mm^2
        Peak Dynamic = 1.02911 W
        Subthreshold Leakage = 0.020636 W
        Subthreshold Leakage with power gating = 0.00786506 W
        Gate Leakage = 0.00335557 W
        Runtime Dynamic = 1.00955e-05 W

          Int Front End RAT:
            Area = 0 mm^2
            Peak Dynamic = 0.447984 W
            Subthreshold Leakage = 0 W
            Subthreshold Leakage with power gating = -nan W
            Gate Leakage = 0 W
            Runtime Dynamic = 8.56146e-06 W

          FP Front End RAT:
            Area = 0 mm^2
            Peak Dynamic = 0.223992 W
            Subthreshold Leakage = 0 W
            Subthreshold Leakage with power gating = -nan W
            Gate Leakage = 0 W
            Runtime Dynamic = 0 W

          Free List:
            Area = 0.0414755 mm^2
            Peak Dynamic = 0.0401324 W
            Subthreshold Leakage = 0.000670426 W
            Subthreshold Leakage with power gating = 0.000377987 W
            Gate Leakage = 4.15911e-05 W
            Runtime Dynamic = 1.53395e-06 W

      Load Store Unit:
        Area = 8.80969 mm^2
        Peak Dynamic = 1.23736 W
        Subthreshold Leakage = 0.591622 W
        Subthreshold Leakage with power gating = 0.283406 W
        Gate Leakage = 0.0351387 W
        Runtime Dynamic = 0.000140789 W

          Data Cache:
            Area = 6.84535 mm^2
            Peak Dynamic = 1.23733 W
            Subthreshold Leakage = 0.527675 W
            Subthreshold Leakage with power gating = 0.25085 W
            Gate Leakage = 0.0279261 W
            Runtime Dynamic = 0.000101637 W

          LoadQ:
            Area = 0.0836782 mm^2
            Peak Dynamic = 6.70964e-06 W
            Subthreshold Leakage = 0.00941961 W
            Subthreshold Leakage with power gating = 0.00536918 W
            Gate Leakage = 0.00059896 W
            Runtime Dynamic = 6.60048e-06 W

          StoreQ:
            Area = 0.322079 mm^2
            Peak Dynamic = 1.65448e-05 W
            Subthreshold Leakage = 0.0345621 W
            Subthreshold Leakage with power gating = 0.0197004 W
            Gate Leakage = 0.00329971 W
            Runtime Dynamic = 3.25513e-05 W

      Memory Management Unit:
        Area = 0.346606 mm^2
        Peak Dynamic = 0.158533 W
        Subthreshold Leakage = 0.0613414 W
        Subthreshold Leakage with power gating = 0.0310713 W
        Gate Leakage = 0.00724862 W
        Runtime Dynamic = 4.18327e-06 W

          Itlb:
            Area = 0.301552 mm^2
            Peak Dynamic = 3.03996e-05 W
            Subthreshold Leakage = 0.0413758 W
            Subthreshold Leakage with power gating = 0.0235842 W
            Gate Leakage = 0.00393464 W
            Runtime Dynamic = 4.18314e-06 W

          Dtlb:
            Area = 0 mm^2
            Peak Dynamic = 0 W
            Subthreshold Leakage = 0 W
            Subthreshold Leakage with power gating = -nan W
            Gate Leakage = 0 W
            Runtime Dynamic = 0 W

      Execution Unit:
        Area = 7.67783 mm^2
        Peak Dynamic = 3.31123 W
        Subthreshold Leakage = 1.76298 W
        Subthreshold Leakage with power gating = 0.66816 W
        Gate Leakage = 0.117962 W
        Runtime Dynamic = 0.608228 W

          Register Files:
            Area = 0.725346 mm^2
            Peak Dynamic = 8.02376e-06 W
            Subthreshold Leakage = 0.0122835 W
            Subthreshold Leakage with power gating = 0.00493351 W
            Gate Leakage = 0.00077984 W
            Runtime Dynamic = 9.38285e-06 W

              Integer RF:
                Area = 0.362673 mm^2
                Peak Dynamic = 8.02376e-06 W
                Subthreshold Leakage = 0.00614175 W
                Subthreshold Leakage with power gating = 0.00246675 W
                Gate Leakage = 0.00038992 W
                Runtime Dynamic = 8.04244e-06 W

              Floating Point RF:
                Area = 0.362673 mm^2
                Peak Dynamic = 0 W
                Subthreshold Leakage = 0.00614175 W
                Subthreshold Leakage with power gating = 0.00246675 W
                Gate Leakage = 0.00038992 W
                Runtime Dynamic = 1.34041e-06 W

          Instruction Scheduler:
            Area = 1.49901 mm^2
            Peak Dynamic = 3.31117 W
            Subthreshold Leakage = 0.0413754 W
            Subthreshold Leakage with power gating = 0.0222326 W
            Gate Leakage = 0.00244394 W
            Runtime Dynamic = 7.36952e-05 W

              Instruction Window:
                Area = 0.329703 mm^2
                Peak Dynamic = 0.542479 W
                Subthreshold Leakage = 0.006509 W
                Subthreshold Leakage with power gating = 0.00363852 W
                Gate Leakage = 0.000434043 W
                Runtime Dynamic = 1.03673e-05 W

              FP Instruction Window:
                Area = 0.328073 mm^2
                Peak Dynamic = 1.20978 W
                Subthreshold Leakage = 0.017004 W
                Subthreshold Leakage with power gating = 0.00962066 W
                Gate Leakage = 0.00115349 W
                Runtime Dynamic = 2.99983e-05 W

              ROB:
                Area = 0.841232 mm^2
                Peak Dynamic = 1.55892 W
                Subthreshold Leakage = 0.0178624 W
                Subthreshold Leakage with power gating = 0.00897339 W
                Gate Leakage = 0.000856399 W
                Runtime Dynamic = 3.33296e-05 W

          Integer ALUs (Count: 6 ):
            Area = 0.47087 mm^2
            Peak Dynamic = 3.02555e-05 W
            Subthreshold Leakage = 0.40222 W
            Subthreshold Leakage with power gating = 0.150833 W
            Gate Leakage = 0.0265291 W
            Runtime Dynamic = 0.101371 W

          Floating Point Units (FPUs) (Count: 2 ):
            Area = 4.6585 mm^2
            Peak Dynamic = 0 W
            Subthreshold Leakage = 0.994829 W
            Subthreshold Leakage with power gating = 0.373061 W
            Gate Leakage = 0.0656156 W
            Runtime Dynamic = 0.304033 W

          Complex ALUs (Mul/Div) (Count: 1 ):
            Area = 0.235435 mm^2
            Peak Dynamic = 0 W
            Subthreshold Leakage = 0.20111 W
            Subthreshold Leakage with power gating = 0.0754163 W
            Gate Leakage = 0.0132646 W
            Runtime Dynamic = 0.202689 W

          Results Broadcast Bus:
            Area Overhead = 0.0436135 mm^2
            Peak Dynamic = 1.86738e-05 W
            Subthreshold Leakage = 0.0911921 W
            Subthreshold Leakage with power gating = 0.034197 W
            Gate Leakage = 0.00601473 W
            Runtime Dynamic = 5.23147e-05 W

    L2
    Area = 4.53318 mm^2
    Peak Dynamic = 5.0893e-06 W
    Subthreshold Leakage = 0.834142 W
    Subthreshold Leakage with power gating = 0.401066 W
    Gate Leakage = 0.015464 W
    Runtime Dynamic = 2.3513e-06 W

*****************************************************************************************
Core:
      Area = 30.445 mm^2
      Peak Dynamic = 7.95495 W
      Subthreshold Leakage = 5.89985 W
      Subthreshold Leakage with power gating = 2.40096 W
      Gate Leakage = 0.350117 W
      Runtime Dynamic = 0.608436 W

      Instruction Fetch Unit:
        Area = 4.59444 mm^2
        Peak Dynamic = 2.21872 W
        Subthreshold Leakage = 0.751292 W
        Subthreshold Leakage with power gating = 0.305204 W
        Gate Leakage = 0.0470923 W
        Runtime Dynamic = 6.07026e-05 W

          Instruction Cache:
            Area = 1.88071 mm^2
            Peak Dynamic = 0.000182999 W
            Subthreshold Leakage = 0.185726 W
            Subthreshold Leakage with power gating = 0.0770478 W
            Gate Leakage = 0.0179754 W
            Runtime Dynamic = 2.42301e-05 W

          Branch Target Buffer:
            Area = 0.64954 mm^2
            Peak Dynamic = 0.177867 W
            Subthreshold Leakage = 0.0811682 W
            Subthreshold Leakage with power gating = 0.0435357 W
            Gate Leakage = 0.00272758 W
            Runtime Dynamic = 2.23661e-06 W

          Branch Predictor:
            Area = 0.138516 mm^2
            Peak Dynamic = 0.0597838 W
            Subthreshold Leakage = 0.0199703 W
            Subthreshold Leakage with power gating = 0.0103282 W
            Gate Leakage = 0.000757657 W
            Runtime Dynamic = 7.96576e-07 W

              Global Predictor:
                Area = 0.0435221 mm^2
                Peak Dynamic = 0.0168831 W
                Subthreshold Leakage = 0.00759719 W
                Subthreshold Leakage with power gating = 0.0039236 W
                Gate Leakage = 0.000278362 W
                Runtime Dynamic = 2.37478e-07 W

              Local Predictor:
              L1_Local Predictor:
                Area = 0.0257064 mm^2
                Peak Dynamic = 0.0142575 W
                Subthreshold Leakage = 0.00384344 W
                Subthreshold Leakage with power gating = 0.00198631 W
                Gate Leakage = 0.000154548 W
                Runtime Dynamic = 2.07971e-07 W

              L2_Local Predictor:
                Area = 0.0151917 mm^2
                Peak Dynamic = 0.00527447 W
                Subthreshold Leakage = 0.00181347 W
                Subthreshold Leakage with power gating = 0.000957045 W
                Gate Leakage = 8.00196e-05 W
                Runtime Dynamic = 8.11259e-08 W

              Chooser:
                Area = 0.0435221 mm^2
                Peak Dynamic = 0.0168831 W
                Subthreshold Leakage = 0.00759719 W
                Subthreshold Leakage with power gating = 0.0039236 W
                Gate Leakage = 0.000278362 W
                Runtime Dynamic = 2.37478e-07 W

              RAS:
                Area = 0.0105732 mm^2
                Peak Dynamic = 0.0117602 W
                Subthreshold Leakage = 0.000932505 W
                Subthreshold Leakage with power gating = 0.000494733 W
                Gate Leakage = 4.63858e-05 W
                Runtime Dynamic = 1.1365e-07 W

          Instruction Buffer:
            Area = 0.0226323 mm^2
            Peak Dynamic = 0.606827 W
            Subthreshold Leakage = 0.00151885 W
            Subthreshold Leakage with power gating = 0.000701682 W
            Gate Leakage = 6.83558e-05 W
            Runtime Dynamic = 7.60595e-06 W

          Instruction Decoder:
            Area = 1.85799 mm^2
            Peak Dynamic = 1.37404 W
            Subthreshold Leakage = 0.442943 W
            Subthreshold Leakage with power gating = 0.166104 W
            Gate Leakage = 0.0222493 W
            Runtime Dynamic = 2.58332e-05 W

      Renaming Unit:
        Area = 0.0865297 mm^2
        Peak Dynamic = 1.02911 W
        Subthreshold Leakage = 0.020636 W
        Subthreshold Leakage with power gating = 0.00786506 W
        Gate Leakage = 0.00335557 W
        Runtime Dynamic = 9.93172e-06 W

          Int Front End RAT:
            Area = 0 mm^2
            Peak Dynamic = 0.447984 W
            Subthreshold Leakage = 0 W
            Subthreshold Leakage with power gating = -nan W
            Gate Leakage = 0 W
            Runtime Dynamic = 8.42254e-06 W

          FP Front End RAT:
            Area = 0 mm^2
            Peak Dynamic = 0.223992 W
            Subthreshold Leakage = 0 W
            Subthreshold Leakage with power gating = -nan W
            Gate Leakage = 0 W
            Runtime Dynamic = 0 W

          Free List:
            Area = 0.0414755 mm^2
            Peak Dynamic = 0.0401324 W
            Subthreshold Leakage = 0.000670426 W
            Subthreshold Leakage with power gating = 0.000377987 W
            Gate Leakage = 4.15911e-05 W
            Runtime Dynamic = 1.50906e-06 W

      Load Store Unit:
        Area = 8.80969 mm^2
        Peak Dynamic = 1.23735 W
        Subthreshold Leakage = 0.591622 W
        Subthreshold Leakage with power gating = 0.283406 W
        Gate Leakage = 0.0351387 W
        Runtime Dynamic = 0.000134728 W

          Data Cache:
            Area = 6.84535 mm^2
            Peak Dynamic = 1.23732 W
            Subthreshold Leakage = 0.527675 W
            Subthreshold Leakage with power gating = 0.25085 W
            Gate Leakage = 0.0279261 W
            Runtime Dynamic = 9.67739e-05 W

          LoadQ:
            Area = 0.0836782 mm^2
            Peak Dynamic = 6.46114e-06 W
            Subthreshold Leakage = 0.00941961 W
            Subthreshold Leakage with power gating = 0.00536918 W
            Gate Leakage = 0.00059896 W
            Runtime Dynamic = 6.39857e-06 W

          StoreQ:
            Area = 0.322079 mm^2
            Peak Dynamic = 1.59321e-05 W
            Subthreshold Leakage = 0.0345621 W
            Subthreshold Leakage with power gating = 0.0197004 W
            Gate Leakage = 0.00329971 W
            Runtime Dynamic = 3.15555e-05 W

      Memory Management Unit:
        Area = 0.346606 mm^2
        Peak Dynamic = 0.158532 W
        Subthreshold Leakage = 0.0613414 W
        Subthreshold Leakage with power gating = 0.0310713 W
        Gate Leakage = 0.00724862 W
        Runtime Dynamic = 4.09618e-06 W

          Itlb:
            Area = 0.301552 mm^2
            Peak Dynamic = 2.99996e-05 W
            Subthreshold Leakage = 0.0413758 W
            Subthreshold Leakage with power gating = 0.0235842 W
            Gate Leakage = 0.00393464 W
            Runtime Dynamic = 4.09606e-06 W

          Dtlb:
            Area = 0 mm^2
            Peak Dynamic = 0 W
            Subthreshold Leakage = 0 W
            Subthreshold Leakage with power gating = -nan W
            Gate Leakage = 0 W
            Runtime Dynamic = 0 W

      Execution Unit:
        Area = 7.67783 mm^2
        Peak Dynamic = 3.31123 W
        Subthreshold Leakage = 1.76298 W
        Subthreshold Leakage with power gating = 0.66816 W
        Gate Leakage = 0.117962 W
        Runtime Dynamic = 0.608226 W

          Register Files:
            Area = 0.725346 mm^2
            Peak Dynamic = 8.02376e-06 W
            Subthreshold Leakage = 0.0122835 W
            Subthreshold Leakage with power gating = 0.00493351 W
            Gate Leakage = 0.00077984 W
            Runtime Dynamic = 9.23055e-06 W

              Integer RF:
                Area = 0.362673 mm^2
                Peak Dynamic = 8.02376e-06 W
                Subthreshold Leakage = 0.00614175 W
                Subthreshold Leakage with power gating = 0.00246675 W
                Gate Leakage = 0.00038992 W
                Runtime Dynamic = 7.91192e-06 W

              Floating Point RF:
                Area = 0.362673 mm^2
                Peak Dynamic = 0 W
                Subthreshold Leakage = 0.00614175 W
                Subthreshold Leakage with power gating = 0.00246675 W
                Gate Leakage = 0.00038992 W
                Runtime Dynamic = 1.31864e-06 W

          Instruction Scheduler:
            Area = 1.49901 mm^2
            Peak Dynamic = 3.31117 W
            Subthreshold Leakage = 0.0413754 W
            Subthreshold Leakage with power gating = 0.0222326 W
            Gate Leakage = 0.00244394 W
            Runtime Dynamic = 7.25605e-05 W

              Instruction Window:
                Area = 0.329703 mm^2
                Peak Dynamic = 0.542479 W
                Subthreshold Leakage = 0.006509 W
                Subthreshold Leakage with power gating = 0.00363852 W
                Gate Leakage = 0.000434043 W
                Runtime Dynamic = 1.01991e-05 W

              FP Instruction Window:
                Area = 0.328073 mm^2
                Peak Dynamic = 1.20978 W
                Subthreshold Leakage = 0.017004 W
                Subthreshold Leakage with power gating = 0.00962066 W
                Gate Leakage = 0.00115349 W
                Runtime Dynamic = 2.95114e-05 W

              ROB:
                Area = 0.841232 mm^2
                Peak Dynamic = 1.55892 W
                Subthreshold Leakage = 0.0178624 W
                Subthreshold Leakage with power gating = 0.00897339 W
                Gate Leakage = 0.000856399 W
                Runtime Dynamic = 3.28499e-05 W

          Integer ALUs (Count: 6 ):
            Area = 0.47087 mm^2
            Peak Dynamic = 3.02555e-05 W
            Subthreshold Leakage = 0.40222 W
            Subthreshold Leakage with power gating = 0.150833 W
            Gate Leakage = 0.0265291 W
            Runtime Dynamic = 0.101371 W

          Floating Point Units (FPUs) (Count: 2 ):
            Area = 4.6585 mm^2
            Peak Dynamic = 0 W
            Subthreshold Leakage = 0.994829 W
            Subthreshold Leakage with power gating = 0.373061 W
            Gate Leakage = 0.0656156 W
            Runtime Dynamic = 0.304033 W

          Complex ALUs (Mul/Div) (Count: 1 ):
            Area = 0.235435 mm^2
            Peak Dynamic = 0 W
            Subthreshold Leakage = 0.20111 W
            Subthreshold Leakage with power gating = 0.0754163 W
            Gate Leakage = 0.0132646 W
            Runtime Dynamic = 0.202689 W

          Results Broadcast Bus:
            Area Overhead = 0.0436135 mm^2
            Peak Dynamic = 1.86738e-05 W
            Subthreshold Leakage = 0.0911921 W
            Subthreshold Leakage with power gating = 0.034197 W
            Gate Leakage = 0.00601473 W
            Runtime Dynamic = 5.15069e-05 W

    L2
    Area = 4.53318 mm^2
    Peak Dynamic = 5.0893e-06 W
    Subthreshold Leakage = 0.834142 W
    Subthreshold Leakage with power gating = 0.401066 W
    Gate Leakage = 0.015464 W
    Runtime Dynamic = 1.24768e-06 W

*****************************************************************************************
Core:
      Area = 30.445 mm^2
      Peak Dynamic = 7.95495 W
      Subthreshold Leakage = 5.89985 W
      Subthreshold Leakage with power gating = 2.40096 W
      Gate Leakage = 0.350117 W
      Runtime Dynamic = 0.608436 W

      Instruction Fetch Unit:
        Area = 4.59444 mm^2
        Peak Dynamic = 2.21872 W
        Subthreshold Leakage = 0.751292 W
        Subthreshold Leakage with power gating = 0.305204 W
        Gate Leakage = 0.0470923 W
        Runtime Dynamic = 6.07118e-05 W

          Instruction Cache:
            Area = 1.88071 mm^2
            Peak Dynamic = 0.000182999 W
            Subthreshold Leakage = 0.185726 W
            Subthreshold Leakage with power gating = 0.0770478 W
            Gate Leakage = 0.0179754 W
            Runtime Dynamic = 2.42686e-05 W

          Branch Target Buffer:
            Area = 0.64954 mm^2
            Peak Dynamic = 0.177867 W
            Subthreshold Leakage = 0.0811682 W
            Subthreshold Leakage with power gating = 0.0435357 W
            Gate Leakage = 0.00272758 W
            Runtime Dynamic = 2.23827e-06 W

          Branch Predictor:
            Area = 0.138516 mm^2
            Peak Dynamic = 0.0597838 W
            Subthreshold Leakage = 0.0199703 W
            Subthreshold Leakage with power gating = 0.0103282 W
            Gate Leakage = 0.000757657 W
            Runtime Dynamic = 7.95994e-07 W

              Global Predictor:
                Area = 0.0435221 mm^2
                Peak Dynamic = 0.0168831 W
                Subthreshold Leakage = 0.00759719 W
                Subthreshold Leakage with power gating = 0.0039236 W
                Gate Leakage = 0.000278362 W
                Runtime Dynamic = 2.37338e-07 W

              Local Predictor:
              L1_Local Predictor:
                Area = 0.0257064 mm^2
                Peak Dynamic = 0.0142575 W
                Subthreshold Leakage = 0.00384344 W
                Subthreshold Leakage with power gating = 0.00198631 W
                Gate Leakage = 0.000154548 W
                Runtime Dynamic = 2.07765e-07 W

              L2_Local Predictor:
                Area = 0.0151917 mm^2
                Peak Dynamic = 0.00527447 W
                Subthreshold Leakage = 0.00181347 W
                Subthreshold Leakage with power gating = 0.000957045 W
                Gate Leakage = 8.00196e-05 W
                Runtime Dynamic = 8.10005e-08 W

              Chooser:
                Area = 0.0435221 mm^2
                Peak Dynamic = 0.0168831 W
                Subthreshold Leakage = 0.00759719 W
                Subthreshold Leakage with power gating = 0.0039236 W
                Gate Leakage = 0.000278362 W
                Runtime Dynamic = 2.37338e-07 W

              RAS:
                Area = 0.0105732 mm^2
                Peak Dynamic = 0.0117602 W
                Subthreshold Leakage = 0.000932505 W
                Subthreshold Leakage with power gating = 0.000494733 W
                Gate Leakage = 4.63858e-05 W
                Runtime Dynamic = 1.13552e-07 W

          Instruction Buffer:
            Area = 0.0226323 mm^2
            Peak Dynamic = 0.606827 W
            Subthreshold Leakage = 0.00151885 W
            Subthreshold Leakage with power gating = 0.000701682 W
            Gate Leakage = 6.83558e-05 W
            Runtime Dynamic = 7.59904e-06 W

          Instruction Decoder:
            Area = 1.85799 mm^2
            Peak Dynamic = 1.37404 W
            Subthreshold Leakage = 0.442943 W
            Subthreshold Leakage with power gating = 0.166104 W
            Gate Leakage = 0.0222493 W
            Runtime Dynamic = 2.58098e-05 W

      Renaming Unit:
        Area = 0.0865297 mm^2
        Peak Dynamic = 1.02911 W
        Subthreshold Leakage = 0.020636 W
        Subthreshold Leakage with power gating = 0.00786506 W
        Gate Leakage = 0.00335557 W
        Runtime Dynamic = 9.9227e-06 W

          Int Front End RAT:
            Area = 0 mm^2
            Peak Dynamic = 0.447984 W
            Subthreshold Leakage = 0 W
            Subthreshold Leakage with power gating = -nan W
            Gate Leakage = 0 W
            Runtime Dynamic = 8.41489e-06 W

          FP Front End RAT:
            Area = 0 mm^2
            Peak Dynamic = 0.223992 W
            Subthreshold Leakage = 0 W
            Subthreshold Leakage with power gating = -nan W
            Gate Leakage = 0 W
            Runtime Dynamic = 0 W

          Free List:
            Area = 0.0414755 mm^2
            Peak Dynamic = 0.0401324 W
            Subthreshold Leakage = 0.000670426 W
            Subthreshold Leakage with power gating = 0.000377987 W
            Gate Leakage = 4.15911e-05 W
            Runtime Dynamic = 1.50768e-06 W

      Load Store Unit:
        Area = 8.80969 mm^2
        Peak Dynamic = 1.23735 W
        Subthreshold Leakage = 0.591622 W
        Subthreshold Leakage with power gating = 0.283406 W
        Gate Leakage = 0.0351387 W
        Runtime Dynamic = 0.000134336 W

          Data Cache:
            Area = 6.84535 mm^2
            Peak Dynamic = 1.23732 W
            Subthreshold Leakage = 0.527675 W
            Subthreshold Leakage with power gating = 0.25085 W
            Gate Leakage = 0.0279261 W
            Runtime Dynamic = 9.65122e-05 W

          LoadQ:
            Area = 0.0836782 mm^2
            Peak Dynamic = 6.46114e-06 W
            Subthreshold Leakage = 0.00941961 W
            Subthreshold Leakage with power gating = 0.00536918 W
            Gate Leakage = 0.00059896 W
            Runtime Dynamic = 6.37656e-06 W

          StoreQ:
            Area = 0.322079 mm^2
            Peak Dynamic = 1.59321e-05 W
            Subthreshold Leakage = 0.0345621 W
            Subthreshold Leakage with power gating = 0.0197004 W
            Gate Leakage = 0.00329971 W
            Runtime Dynamic = 3.1447e-05 W

      Memory Management Unit:
        Area = 0.346606 mm^2
        Peak Dynamic = 0.158532 W
        Subthreshold Leakage = 0.0613414 W
        Subthreshold Leakage with power gating = 0.0310713 W
        Gate Leakage = 0.00724862 W
        Runtime Dynamic = 4.09654e-06 W

          Itlb:
            Area = 0.301552 mm^2
            Peak Dynamic = 2.99996e-05 W
            Subthreshold Leakage = 0.0413758 W
            Subthreshold Leakage with power gating = 0.0235842 W
            Gate Leakage = 0.00393464 W
            Runtime Dynamic = 4.09641e-06 W

          Dtlb:
            Area = 0 mm^2
            Peak Dynamic = 0 W
            Subthreshold Leakage = 0 W
            Subthreshold Leakage with power gating = -nan W
            Gate Leakage = 0 W
            Runtime Dynamic = 0 W

      Execution Unit:
        Area = 7.67783 mm^2
        Peak Dynamic = 3.31123 W
        Subthreshold Leakage = 1.76298 W
        Subthreshold Leakage with power gating = 0.66816 W
        Gate Leakage = 0.117962 W
        Runtime Dynamic = 0.608226 W

          Register Files:
            Area = 0.725346 mm^2
            Peak Dynamic = 8.02376e-06 W
            Subthreshold Leakage = 0.0122835 W
            Subthreshold Leakage with power gating = 0.00493351 W
            Gate Leakage = 0.00077984 W
            Runtime Dynamic = 9.2222e-06 W

              Integer RF:
                Area = 0.362673 mm^2
                Peak Dynamic = 8.02376e-06 W
                Subthreshold Leakage = 0.00614175 W
                Subthreshold Leakage with power gating = 0.00246675 W
                Gate Leakage = 0.00038992 W
                Runtime Dynamic = 7.90475e-06 W

              Floating Point RF:
                Area = 0.362673 mm^2
                Peak Dynamic = 0 W
                Subthreshold Leakage = 0.00614175 W
                Subthreshold Leakage with power gating = 0.00246675 W
                Gate Leakage = 0.00038992 W
                Runtime Dynamic = 1.31745e-06 W

          Instruction Scheduler:
            Area = 1.49901 mm^2
            Peak Dynamic = 3.31117 W
            Subthreshold Leakage = 0.0413754 W
            Subthreshold Leakage with power gating = 0.0222326 W
            Gate Leakage = 0.00244394 W
            Runtime Dynamic = 7.25004e-05 W

              Instruction Window:
                Area = 0.329703 mm^2
                Peak Dynamic = 0.542479 W
                Subthreshold Leakage = 0.006509 W
                Subthreshold Leakage with power gating = 0.00363852 W
                Gate Leakage = 0.000434043 W
                Runtime Dynamic = 1.01899e-05 W

              FP Instruction Window:
                Area = 0.328073 mm^2
                Peak Dynamic = 1.20978 W
                Subthreshold Leakage = 0.017004 W
                Subthreshold Leakage with power gating = 0.00962066 W
                Gate Leakage = 0.00115349 W
                Runtime Dynamic = 2.94847e-05 W

              ROB:
                Area = 0.841232 mm^2
                Peak Dynamic = 1.55892 W
                Subthreshold Leakage = 0.0178624 W
                Subthreshold Leakage with power gating = 0.00897339 W
                Gate Leakage = 0.000856399 W
                Runtime Dynamic = 3.28258e-05 W

          Integer ALUs (Count: 6 ):
            Area = 0.47087 mm^2
            Peak Dynamic = 3.02555e-05 W
            Subthreshold Leakage = 0.40222 W
            Subthreshold Leakage with power gating = 0.150833 W
            Gate Leakage = 0.0265291 W
            Runtime Dynamic = 0.101371 W

          Floating Point Units (FPUs) (Count: 2 ):
            Area = 4.6585 mm^2
            Peak Dynamic = 0 W
            Subthreshold Leakage = 0.994829 W
            Subthreshold Leakage with power gating = 0.373061 W
            Gate Leakage = 0.0656156 W
            Runtime Dynamic = 0.304033 W

          Complex ALUs (Mul/Div) (Count: 1 ):
            Area = 0.235435 mm^2
            Peak Dynamic = 0 W
            Subthreshold Leakage = 0.20111 W
            Subthreshold Leakage with power gating = 0.0754163 W
            Gate Leakage = 0.0132646 W
            Runtime Dynamic = 0.202689 W

          Results Broadcast Bus:
            Area Overhead = 0.0436135 mm^2
            Peak Dynamic = 1.86738e-05 W
            Subthreshold Leakage = 0.0911921 W
            Subthreshold Leakage with power gating = 0.034197 W
            Gate Leakage = 0.00601473 W
            Runtime Dynamic = 5.14558e-05 W

    L2
    Area = 4.53318 mm^2
    Peak Dynamic = 5.0893e-06 W
    Subthreshold Leakage = 0.834142 W
    Subthreshold Leakage with power gating = 0.401066 W
    Gate Leakage = 0.015464 W
    Runtime Dynamic = 1.27099e-06 W

*****************************************************************************************
Core:
      Area = 30.445 mm^2
      Peak Dynamic = 7.95551 W
      Subthreshold Leakage = 5.89985 W
      Subthreshold Leakage with power gating = 2.40096 W
      Gate Leakage = 0.350117 W
      Runtime Dynamic = 0.608828 W

      Instruction Fetch Unit:
        Area = 4.59444 mm^2
        Peak Dynamic = 2.21894 W
        Subthreshold Leakage = 0.751292 W
        Subthreshold Leakage with power gating = 0.305204 W
        Gate Leakage = 0.0470923 W
        Runtime Dynamic = 0.000124281 W

          Instruction Cache:
            Area = 1.88071 mm^2
            Peak Dynamic = 0.000378198 W
            Subthreshold Leakage = 0.185726 W
            Subthreshold Leakage with power gating = 0.0770478 W
            Gate Leakage = 0.0179754 W
            Runtime Dynamic = 4.92704e-05 W

          Branch Target Buffer:
            Area = 0.64954 mm^2
            Peak Dynamic = 0.177867 W
            Subthreshold Leakage = 0.0811682 W
            Subthreshold Leakage with power gating = 0.0435357 W
            Gate Leakage = 0.00272758 W
            Runtime Dynamic = 4.61709e-06 W

          Branch Predictor:
            Area = 0.138516 mm^2
            Peak Dynamic = 0.0597838 W
            Subthreshold Leakage = 0.0199703 W
            Subthreshold Leakage with power gating = 0.0103282 W
            Gate Leakage = 0.000757657 W
            Runtime Dynamic = 1.63389e-06 W

              Global Predictor:
                Area = 0.0435221 mm^2
                Peak Dynamic = 0.0168831 W
                Subthreshold Leakage = 0.00759719 W
                Subthreshold Leakage with power gating = 0.0039236 W
                Gate Leakage = 0.000278362 W
                Runtime Dynamic = 4.87179e-07 W

              Local Predictor:
              L1_Local Predictor:
                Area = 0.0257064 mm^2
                Peak Dynamic = 0.0142575 W
                Subthreshold Leakage = 0.00384344 W
                Subthreshold Leakage with power gating = 0.00198631 W
                Gate Leakage = 0.000154548 W
                Runtime Dynamic = 4.25842e-07 W

              L2_Local Predictor:
                Area = 0.0151917 mm^2
                Peak Dynamic = 0.00527447 W
                Subthreshold Leakage = 0.00181347 W
                Subthreshold Leakage with power gating = 0.000957045 W
                Gate Leakage = 8.00196e-05 W
                Runtime Dynamic = 1.65676e-07 W

              Chooser:
                Area = 0.0435221 mm^2
                Peak Dynamic = 0.0168831 W
                Subthreshold Leakage = 0.00759719 W
                Subthreshold Leakage with power gating = 0.0039236 W
                Gate Leakage = 0.000278362 W
                Runtime Dynamic = 4.87179e-07 W

              RAS:
                Area = 0.0105732 mm^2
                Peak Dynamic = 0.0117602 W
                Subthreshold Leakage = 0.000932505 W
                Subthreshold Leakage with power gating = 0.000494733 W
                Gate Leakage = 4.63858e-05 W
                Runtime Dynamic = 2.33694e-07 W

          Instruction Buffer:
            Area = 0.0226323 mm^2
            Peak Dynamic = 0.606827 W
            Subthreshold Leakage = 0.00151885 W
            Subthreshold Leakage with power gating = 0.000701682 W
            Gate Leakage = 6.83558e-05 W
            Runtime Dynamic = 1.56398e-05 W

          Instruction Decoder:
            Area = 1.85799 mm^2
            Peak Dynamic = 1.37404 W
            Subthreshold Leakage = 0.442943 W
            Subthreshold Leakage with power gating = 0.166104 W
            Gate Leakage = 0.0222493 W
            Runtime Dynamic = 5.31198e-05 W

      Renaming Unit:
        Area = 0.0865297 mm^2
        Peak Dynamic = 1.02911 W
        Subthreshold Leakage = 0.020636 W
        Subthreshold Leakage with power gating = 0.00786506 W
        Gate Leakage = 0.00335557 W
        Runtime Dynamic = 2.0422e-05 W

          Int Front End RAT:
            Area = 0 mm^2
            Peak Dynamic = 0.447984 W
            Subthreshold Leakage = 0 W
            Subthreshold Leakage with power gating = -nan W
            Gate Leakage = 0 W
            Runtime Dynamic = 1.73189e-05 W

          FP Front End RAT:
            Area = 0 mm^2
            Peak Dynamic = 0.223992 W
            Subthreshold Leakage = 0 W
            Subthreshold Leakage with power gating = -nan W
            Gate Leakage = 0 W
            Runtime Dynamic = 0 W

          Free List:
            Area = 0.0414755 mm^2
            Peak Dynamic = 0.0401324 W
            Subthreshold Leakage = 0.000670426 W
            Subthreshold Leakage with power gating = 0.000377987 W
            Gate Leakage = 4.15911e-05 W
            Runtime Dynamic = 3.10301e-06 W

      Load Store Unit:
        Area = 8.80969 mm^2
        Peak Dynamic = 1.23759 W
        Subthreshold Leakage = 0.591622 W
        Subthreshold Leakage with power gating = 0.283406 W
        Gate Leakage = 0.0351387 W
        Runtime Dynamic = 0.000277599 W

          Data Cache:
            Area = 6.84535 mm^2
            Peak Dynamic = 1.23753 W
            Subthreshold Leakage = 0.527675 W
            Subthreshold Leakage with power gating = 0.25085 W
            Gate Leakage = 0.0279261 W
            Runtime Dynamic = 0.000199416 W

          LoadQ:
            Area = 0.0836782 mm^2
            Peak Dynamic = 1.31708e-05 W
            Subthreshold Leakage = 0.00941961 W
            Subthreshold Leakage with power gating = 0.00536918 W
            Gate Leakage = 0.00059896 W
            Runtime Dynamic = 1.31806e-05 W

          StoreQ:
            Area = 0.322079 mm^2
            Peak Dynamic = 3.24769e-05 W
            Subthreshold Leakage = 0.0345621 W
            Subthreshold Leakage with power gating = 0.0197004 W
            Gate Leakage = 0.00329971 W
            Runtime Dynamic = 6.5002e-05 W

      Memory Management Unit:
        Area = 0.346606 mm^2
        Peak Dynamic = 0.158569 W
        Subthreshold Leakage = 0.0613414 W
        Subthreshold Leakage with power gating = 0.0310713 W
        Gate Leakage = 0.00724862 W
        Runtime Dynamic = 8.28228e-06 W

          Itlb:
            Area = 0.301552 mm^2
            Peak Dynamic = 6.19992e-05 W
            Subthreshold Leakage = 0.0413758 W
            Subthreshold Leakage with power gating = 0.0235842 W
            Gate Leakage = 0.00393464 W
            Runtime Dynamic = 8.28215e-06 W

          Dtlb:
            Area = 0 mm^2
            Peak Dynamic = 0 W
            Subthreshold Leakage = 0 W
            Subthreshold Leakage with power gating = -nan W
            Gate Leakage = 0 W
            Runtime Dynamic = 0 W

      Execution Unit:
        Area = 7.67783 mm^2
        Peak Dynamic = 3.3113 W
        Subthreshold Leakage = 1.76298 W
        Subthreshold Leakage with power gating = 0.66816 W
        Gate Leakage = 0.117962 W
        Runtime Dynamic = 0.608394 W

          Register Files:
            Area = 0.725346 mm^2
            Peak Dynamic = 1.60475e-05 W
            Subthreshold Leakage = 0.0122835 W
            Subthreshold Leakage with power gating = 0.00493351 W
            Gate Leakage = 0.00077984 W
            Runtime Dynamic = 1.89804e-05 W

              Integer RF:
                Area = 0.362673 mm^2
                Peak Dynamic = 1.60475e-05 W
                Subthreshold Leakage = 0.00614175 W
                Subthreshold Leakage with power gating = 0.00246675 W
                Gate Leakage = 0.00038992 W
                Runtime Dynamic = 1.6269e-05 W

              Floating Point RF:
                Area = 0.362673 mm^2
                Peak Dynamic = 0 W
                Subthreshold Leakage = 0.00614175 W
                Subthreshold Leakage with power gating = 0.00246675 W
                Gate Leakage = 0.00038992 W
                Runtime Dynamic = 2.71147e-06 W

          Instruction Scheduler:
            Area = 1.49901 mm^2
            Peak Dynamic = 3.31117 W
            Subthreshold Leakage = 0.0413754 W
            Subthreshold Leakage with power gating = 0.0222326 W
            Gate Leakage = 0.00244394 W
            Runtime Dynamic = 0.000149104 W

              Instruction Window:
                Area = 0.329703 mm^2
                Peak Dynamic = 0.542479 W
                Subthreshold Leakage = 0.006509 W
                Subthreshold Leakage with power gating = 0.00363852 W
                Gate Leakage = 0.000434043 W
                Runtime Dynamic = 2.0972e-05 W

              FP Instruction Window:
                Area = 0.328073 mm^2
                Peak Dynamic = 1.20978 W
                Subthreshold Leakage = 0.017004 W
                Subthreshold Leakage with power gating = 0.00962066 W
                Gate Leakage = 0.00115349 W
                Runtime Dynamic = 6.06832e-05 W

              ROB:
                Area = 0.841232 mm^2
                Peak Dynamic = 1.55892 W
                Subthreshold Leakage = 0.0178624 W
                Subthreshold Leakage with power gating = 0.00897339 W
                Gate Leakage = 0.000856399 W
                Runtime Dynamic = 6.74483e-05 W

          Integer ALUs (Count: 6 ):
            Area = 0.47087 mm^2
            Peak Dynamic = 6.0511e-05 W
            Subthreshold Leakage = 0.40222 W
            Subthreshold Leakage with power gating = 0.150833 W
            Gate Leakage = 0.0265291 W
            Runtime Dynamic = 0.101399 W

          Floating Point Units (FPUs) (Count: 2 ):
            Area = 4.6585 mm^2
            Peak Dynamic = 0 W
            Subthreshold Leakage = 0.994829 W
            Subthreshold Leakage with power gating = 0.373061 W
            Gate Leakage = 0.0656156 W
            Runtime Dynamic = 0.304033 W

          Complex ALUs (Mul/Div) (Count: 1 ):
            Area = 0.235435 mm^2
            Peak Dynamic = 0 W
            Subthreshold Leakage = 0.20111 W
            Subthreshold Leakage with power gating = 0.0754163 W
            Gate Leakage = 0.0132646 W
            Runtime Dynamic = 0.202689 W

          Results Broadcast Bus:
            Area Overhead = 0.0436135 mm^2
            Peak Dynamic = 3.73475e-05 W
            Subthreshold Leakage = 0.0911921 W
            Subthreshold Leakage with power gating = 0.034197 W
            Gate Leakage = 0.00601473 W
            Runtime Dynamic = 0.000105655 W

    L2
    Area = 4.53318 mm^2
    Peak Dynamic = 1.01786e-05 W
    Subthreshold Leakage = 0.834142 W
    Subthreshold Leakage with power gating = 0.401066 W
    Gate Leakage = 0.015464 W
    Runtime Dynamic = 2.9768e-06 W

*****************************************************************************************
Core:
      Area = 30.445 mm^2
      Peak Dynamic = 7.95495 W
      Subthreshold Leakage = 5.89985 W
      Subthreshold Leakage with power gating = 2.40096 W
      Gate Leakage = 0.350117 W
      Runtime Dynamic = 0.608435 W

      Instruction Fetch Unit:
        Area = 4.59444 mm^2
        Peak Dynamic = 2.21872 W
        Subthreshold Leakage = 0.751292 W
        Subthreshold Leakage with power gating = 0.305204 W
        Gate Leakage = 0.0470923 W
        Runtime Dynamic = 6.03986e-05 W

          Instruction Cache:
            Area = 1.88071 mm^2
            Peak Dynamic = 0.000182999 W
            Subthreshold Leakage = 0.185726 W
            Subthreshold Leakage with power gating = 0.0770478 W
            Gate Leakage = 0.0179754 W
            Runtime Dynamic = 2.41216e-05 W

          Branch Target Buffer:
            Area = 0.64954 mm^2
            Peak Dynamic = 0.177867 W
            Subthreshold Leakage = 0.0811682 W
            Subthreshold Leakage with power gating = 0.0435357 W
            Gate Leakage = 0.00272758 W
            Runtime Dynamic = 2.22366e-06 W

          Branch Predictor:
            Area = 0.138516 mm^2
            Peak Dynamic = 0.0597838 W
            Subthreshold Leakage = 0.0199703 W
            Subthreshold Leakage with power gating = 0.0103282 W
            Gate Leakage = 0.000757657 W
            Runtime Dynamic = 7.90778e-07 W

              Global Predictor:
                Area = 0.0435221 mm^2
                Peak Dynamic = 0.0168831 W
                Subthreshold Leakage = 0.00759719 W
                Subthreshold Leakage with power gating = 0.0039236 W
                Gate Leakage = 0.000278362 W
                Runtime Dynamic = 2.35706e-07 W

              Local Predictor:
              L1_Local Predictor:
                Area = 0.0257064 mm^2
                Peak Dynamic = 0.0142575 W
                Subthreshold Leakage = 0.00384344 W
                Subthreshold Leakage with power gating = 0.00198631 W
                Gate Leakage = 0.000154548 W
                Runtime Dynamic = 2.06315e-07 W

              L2_Local Predictor:
                Area = 0.0151917 mm^2
                Peak Dynamic = 0.00527447 W
                Subthreshold Leakage = 0.00181347 W
                Subthreshold Leakage with power gating = 0.000957045 W
                Gate Leakage = 8.00196e-05 W
                Runtime Dynamic = 8.0423e-08 W

              Chooser:
                Area = 0.0435221 mm^2
                Peak Dynamic = 0.0168831 W
                Subthreshold Leakage = 0.00759719 W
                Subthreshold Leakage with power gating = 0.0039236 W
                Gate Leakage = 0.000278362 W
                Runtime Dynamic = 2.35706e-07 W

              RAS:
                Area = 0.0105732 mm^2
                Peak Dynamic = 0.0117602 W
                Subthreshold Leakage = 0.000932505 W
                Subthreshold Leakage with power gating = 0.000494733 W
                Gate Leakage = 4.63858e-05 W
                Runtime Dynamic = 1.13051e-07 W

          Instruction Buffer:
            Area = 0.0226323 mm^2
            Peak Dynamic = 0.606827 W
            Subthreshold Leakage = 0.00151885 W
            Subthreshold Leakage with power gating = 0.000701682 W
            Gate Leakage = 6.83558e-05 W
            Runtime Dynamic = 7.56574e-06 W

          Instruction Decoder:
            Area = 1.85799 mm^2
            Peak Dynamic = 1.37404 W
            Subthreshold Leakage = 0.442943 W
            Subthreshold Leakage with power gating = 0.166104 W
            Gate Leakage = 0.0222493 W
            Runtime Dynamic = 2.56967e-05 W

      Renaming Unit:
        Area = 0.0865297 mm^2
        Peak Dynamic = 1.02911 W
        Subthreshold Leakage = 0.020636 W
        Subthreshold Leakage with power gating = 0.00786506 W
        Gate Leakage = 0.00335557 W
        Runtime Dynamic = 9.87922e-06 W

          Int Front End RAT:
            Area = 0 mm^2
            Peak Dynamic = 0.447984 W
            Subthreshold Leakage = 0 W
            Subthreshold Leakage with power gating = -nan W
            Gate Leakage = 0 W
            Runtime Dynamic = 8.37802e-06 W

          FP Front End RAT:
            Area = 0 mm^2
            Peak Dynamic = 0.223992 W
            Subthreshold Leakage = 0 W
            Subthreshold Leakage with power gating = -nan W
            Gate Leakage = 0 W
            Runtime Dynamic = 0 W

          Free List:
            Area = 0.0414755 mm^2
            Peak Dynamic = 0.0401324 W
            Subthreshold Leakage = 0.000670426 W
            Subthreshold Leakage with power gating = 0.000377987 W
            Gate Leakage = 4.15911e-05 W
            Runtime Dynamic = 1.50108e-06 W

      Load Store Unit:
        Area = 8.80969 mm^2
        Peak Dynamic = 1.23735 W
        Subthreshold Leakage = 0.591622 W
        Subthreshold Leakage with power gating = 0.283406 W
        Gate Leakage = 0.0351387 W
        Runtime Dynamic = 0.000134002 W

          Data Cache:
            Area = 6.84535 mm^2
            Peak Dynamic = 1.23732 W
            Subthreshold Leakage = 0.527675 W
            Subthreshold Leakage with power gating = 0.25085 W
            Gate Leakage = 0.0279261 W
            Runtime Dynamic = 9.6285e-05 W

          LoadQ:
            Area = 0.0836782 mm^2
            Peak Dynamic = 6.46114e-06 W
            Subthreshold Leakage = 0.00941961 W
            Subthreshold Leakage with power gating = 0.00536918 W
            Gate Leakage = 0.00059896 W
            Runtime Dynamic = 6.35857e-06 W

          StoreQ:
            Area = 0.322079 mm^2
            Peak Dynamic = 1.59321e-05 W
            Subthreshold Leakage = 0.0345621 W
            Subthreshold Leakage with power gating = 0.0197004 W
            Gate Leakage = 0.00329971 W
            Runtime Dynamic = 3.13583e-05 W

      Memory Management Unit:
        Area = 0.346606 mm^2
        Peak Dynamic = 0.158532 W
        Subthreshold Leakage = 0.0613414 W
        Subthreshold Leakage with power gating = 0.0310713 W
        Gate Leakage = 0.00724862 W
        Runtime Dynamic = 4.07271e-06 W

          Itlb:
            Area = 0.301552 mm^2
            Peak Dynamic = 2.99996e-05 W
            Subthreshold Leakage = 0.0413758 W
            Subthreshold Leakage with power gating = 0.0235842 W
            Gate Leakage = 0.00393464 W
            Runtime Dynamic = 4.07258e-06 W

          Dtlb:
            Area = 0 mm^2
            Peak Dynamic = 0 W
            Subthreshold Leakage = 0 W
            Subthreshold Leakage with power gating = -nan W
            Gate Leakage = 0 W
            Runtime Dynamic = 0 W

      Execution Unit:
        Area = 7.67783 mm^2
        Peak Dynamic = 3.31123 W
        Subthreshold Leakage = 1.76298 W
        Subthreshold Leakage with power gating = 0.66816 W
        Gate Leakage = 0.117962 W
        Runtime Dynamic = 0.608225 W

          Register Files:
            Area = 0.725346 mm^2
            Peak Dynamic = 7.40654e-06 W
            Subthreshold Leakage = 0.0122835 W
            Subthreshold Leakage with power gating = 0.00493351 W
            Gate Leakage = 0.00077984 W
            Runtime Dynamic = 9.18176e-06 W

              Integer RF:
                Area = 0.362673 mm^2
                Peak Dynamic = 7.40654e-06 W
                Subthreshold Leakage = 0.00614175 W
                Subthreshold Leakage with power gating = 0.00246675 W
                Gate Leakage = 0.00038992 W
                Runtime Dynamic = 7.8701e-06 W

              Floating Point RF:
                Area = 0.362673 mm^2
                Peak Dynamic = 0 W
                Subthreshold Leakage = 0.00614175 W
                Subthreshold Leakage with power gating = 0.00246675 W
                Gate Leakage = 0.00038992 W
                Runtime Dynamic = 1.31166e-06 W

          Instruction Scheduler:
            Area = 1.49901 mm^2
            Peak Dynamic = 3.31117 W
            Subthreshold Leakage = 0.0413754 W
            Subthreshold Leakage with power gating = 0.0222326 W
            Gate Leakage = 0.00244394 W
            Runtime Dynamic = 7.21823e-05 W

              Instruction Window:
                Area = 0.329703 mm^2
                Peak Dynamic = 0.542479 W
                Subthreshold Leakage = 0.006509 W
                Subthreshold Leakage with power gating = 0.00363852 W
                Gate Leakage = 0.000434043 W
                Runtime Dynamic = 1.01452e-05 W

              FP Instruction Window:
                Area = 0.328073 mm^2
                Peak Dynamic = 1.20978 W
                Subthreshold Leakage = 0.017004 W
                Subthreshold Leakage with power gating = 0.00962066 W
                Gate Leakage = 0.00115349 W
                Runtime Dynamic = 2.93555e-05 W

              ROB:
                Area = 0.841232 mm^2
                Peak Dynamic = 1.55892 W
                Subthreshold Leakage = 0.0178624 W
                Subthreshold Leakage with power gating = 0.00897339 W
                Gate Leakage = 0.000856399 W
                Runtime Dynamic = 3.26816e-05 W

          Integer ALUs (Count: 6 ):
            Area = 0.47087 mm^2
            Peak Dynamic = 2.79282e-05 W
            Subthreshold Leakage = 0.40222 W
            Subthreshold Leakage with power gating = 0.150833 W
            Gate Leakage = 0.0265291 W
            Runtime Dynamic = 0.101371 W

          Floating Point Units (FPUs) (Count: 2 ):
            Area = 4.6585 mm^2
            Peak Dynamic = 0 W
            Subthreshold Leakage = 0.994829 W
            Subthreshold Leakage with power gating = 0.373061 W
            Gate Leakage = 0.0656156 W
            Runtime Dynamic = 0.304033 W

          Complex ALUs (Mul/Div) (Count: 1 ):
            Area = 0.235435 mm^2
            Peak Dynamic = 0 W
            Subthreshold Leakage = 0.20111 W
            Subthreshold Leakage with power gating = 0.0754163 W
            Gate Leakage = 0.0132646 W
            Runtime Dynamic = 0.202689 W

          Results Broadcast Bus:
            Area Overhead = 0.0436135 mm^2
            Peak Dynamic = 1.72373e-05 W
            Subthreshold Leakage = 0.0911921 W
            Subthreshold Leakage with power gating = 0.034197 W
            Gate Leakage = 0.00601473 W
            Runtime Dynamic = 5.12489e-05 W

    L2
    Area = 4.53318 mm^2
    Peak Dynamic = 5.0893e-06 W
    Subthreshold Leakage = 0.834142 W
    Subthreshold Leakage with power gating = 0.401066 W
    Gate Leakage = 0.015464 W
    Runtime Dynamic = 1.29492e-06 W

*****************************************************************************************
Core:
      Area = 30.445 mm^2
      Peak Dynamic = 7.95495 W
      Subthreshold Leakage = 5.89985 W
      Subthreshold Leakage with power gating = 2.40096 W
      Gate Leakage = 0.350117 W
      Runtime Dynamic = 0.608436 W

      Instruction Fetch Unit:
        Area = 4.59444 mm^2
        Peak Dynamic = 2.21872 W
        Subthreshold Leakage = 0.751292 W
        Subthreshold Leakage with power gating = 0.305204 W
        Gate Leakage = 0.0470923 W
        Runtime Dynamic = 6.05796e-05 W

          Instruction Cache:
            Area = 1.88071 mm^2
            Peak Dynamic = 0.000182999 W
            Subthreshold Leakage = 0.185726 W
            Subthreshold Leakage with power gating = 0.0770478 W
            Gate Leakage = 0.0179754 W
            Runtime Dynamic = 2.41433e-05 W

          Branch Target Buffer:
            Area = 0.64954 mm^2
            Peak Dynamic = 0.177867 W
            Subthreshold Leakage = 0.0811682 W
            Subthreshold Leakage with power gating = 0.0435357 W
            Gate Leakage = 0.00272758 W
            Runtime Dynamic = 2.23251e-06 W

          Branch Predictor:
            Area = 0.138516 mm^2
            Peak Dynamic = 0.0597838 W
            Subthreshold Leakage = 0.0199703 W
            Subthreshold Leakage with power gating = 0.0103282 W
            Gate Leakage = 0.000757657 W
            Runtime Dynamic = 7.94655e-07 W

              Global Predictor:
                Area = 0.0435221 mm^2
                Peak Dynamic = 0.0168831 W
                Subthreshold Leakage = 0.00759719 W
                Subthreshold Leakage with power gating = 0.0039236 W
                Gate Leakage = 0.000278362 W
                Runtime Dynamic = 2.3686e-07 W

              Local Predictor:
              L1_Local Predictor:
                Area = 0.0257064 mm^2
                Peak Dynamic = 0.0142575 W
                Subthreshold Leakage = 0.00384344 W
                Subthreshold Leakage with power gating = 0.00198631 W
                Gate Leakage = 0.000154548 W
                Runtime Dynamic = 2.07382e-07 W

              L2_Local Predictor:
                Area = 0.0151917 mm^2
                Peak Dynamic = 0.00527447 W
                Subthreshold Leakage = 0.00181347 W
                Subthreshold Leakage with power gating = 0.000957045 W
                Gate Leakage = 8.00196e-05 W
                Runtime Dynamic = 8.08701e-08 W

              Chooser:
                Area = 0.0435221 mm^2
                Peak Dynamic = 0.0168831 W
                Subthreshold Leakage = 0.00759719 W
                Subthreshold Leakage with power gating = 0.0039236 W
                Gate Leakage = 0.000278362 W
                Runtime Dynamic = 2.3686e-07 W

              RAS:
                Area = 0.0105732 mm^2
                Peak Dynamic = 0.0117602 W
                Subthreshold Leakage = 0.000932505 W
                Subthreshold Leakage with power gating = 0.000494733 W
                Gate Leakage = 4.63858e-05 W
                Runtime Dynamic = 1.13552e-07 W

          Instruction Buffer:
            Area = 0.0226323 mm^2
            Peak Dynamic = 0.606827 W
            Subthreshold Leakage = 0.00151885 W
            Subthreshold Leakage with power gating = 0.000701682 W
            Gate Leakage = 6.83558e-05 W
            Runtime Dynamic = 7.59908e-06 W

          Instruction Decoder:
            Area = 1.85799 mm^2
            Peak Dynamic = 1.37404 W
            Subthreshold Leakage = 0.442943 W
            Subthreshold Leakage with power gating = 0.166104 W
            Gate Leakage = 0.0222493 W
            Runtime Dynamic = 2.58099e-05 W

      Renaming Unit:
        Area = 0.0865297 mm^2
        Peak Dynamic = 1.02911 W
        Subthreshold Leakage = 0.020636 W
        Subthreshold Leakage with power gating = 0.00786506 W
        Gate Leakage = 0.00335557 W
        Runtime Dynamic = 9.92275e-06 W

          Int Front End RAT:
            Area = 0 mm^2
            Peak Dynamic = 0.447984 W
            Subthreshold Leakage = 0 W
            Subthreshold Leakage with power gating = -nan W
            Gate Leakage = 0 W
            Runtime Dynamic = 8.41493e-06 W

          FP Front End RAT:
            Area = 0 mm^2
            Peak Dynamic = 0.223992 W
            Subthreshold Leakage = 0 W
            Subthreshold Leakage with power gating = -nan W
            Gate Leakage = 0 W
            Runtime Dynamic = 0 W

          Free List:
            Area = 0.0414755 mm^2
            Peak Dynamic = 0.0401324 W
            Subthreshold Leakage = 0.000670426 W
            Subthreshold Leakage with power gating = 0.000377987 W
            Gate Leakage = 4.15911e-05 W
            Runtime Dynamic = 1.50769e-06 W

      Load Store Unit:
        Area = 8.80969 mm^2
        Peak Dynamic = 1.23735 W
        Subthreshold Leakage = 0.591622 W
        Subthreshold Leakage with power gating = 0.283406 W
        Gate Leakage = 0.0351387 W
        Runtime Dynamic = 0.000134613 W

          Data Cache:
            Area = 6.84535 mm^2
            Peak Dynamic = 1.23732 W
            Subthreshold Leakage = 0.527675 W
            Subthreshold Leakage with power gating = 0.25085 W
            Gate Leakage = 0.0279261 W
            Runtime Dynamic = 9.67113e-05 W

          LoadQ:
            Area = 0.0836782 mm^2
            Peak Dynamic = 6.46114e-06 W
            Subthreshold Leakage = 0.00941961 W
            Subthreshold Leakage with power gating = 0.00536918 W
            Gate Leakage = 0.00059896 W
            Runtime Dynamic = 6.38972e-06 W

          StoreQ:
            Area = 0.322079 mm^2
            Peak Dynamic = 1.59321e-05 W
            Subthreshold Leakage = 0.0345621 W
            Subthreshold Leakage with power gating = 0.0197004 W
            Gate Leakage = 0.00329971 W
            Runtime Dynamic = 3.15119e-05 W

      Memory Management Unit:
        Area = 0.346606 mm^2
        Peak Dynamic = 0.158532 W
        Subthreshold Leakage = 0.0613414 W
        Subthreshold Leakage with power gating = 0.0310713 W
        Gate Leakage = 0.00724862 W
        Runtime Dynamic = 4.08158e-06 W

          Itlb:
            Area = 0.301552 mm^2
            Peak Dynamic = 2.99996e-05 W
            Subthreshold Leakage = 0.0413758 W
            Subthreshold Leakage with power gating = 0.0235842 W
            Gate Leakage = 0.00393464 W
            Runtime Dynamic = 4.08145e-06 W

          Dtlb:
            Area = 0 mm^2
            Peak Dynamic = 0 W
            Subthreshold Leakage = 0 W
            Subthreshold Leakage with power gating = -nan W
            Gate Leakage = 0 W
            Runtime Dynamic = 0 W

      Execution Unit:
        Area = 7.67783 mm^2
        Peak Dynamic = 3.31123 W
        Subthreshold Leakage = 1.76298 W
        Subthreshold Leakage with power gating = 0.66816 W
        Gate Leakage = 0.117962 W
        Runtime Dynamic = 0.608226 W

          Register Files:
            Area = 0.725346 mm^2
            Peak Dynamic = 8.02376e-06 W
            Subthreshold Leakage = 0.0122835 W
            Subthreshold Leakage with power gating = 0.00493351 W
            Gate Leakage = 0.00077984 W
            Runtime Dynamic = 9.22221e-06 W

              Integer RF:
                Area = 0.362673 mm^2
                Peak Dynamic = 8.02376e-06 W
                Subthreshold Leakage = 0.00614175 W
                Subthreshold Leakage with power gating = 0.00246675 W
                Gate Leakage = 0.00038992 W
                Runtime Dynamic = 7.90477e-06 W

              Floating Point RF:
                Area = 0.362673 mm^2
                Peak Dynamic = 0 W
                Subthreshold Leakage = 0.00614175 W
                Subthreshold Leakage with power gating = 0.00246675 W
                Gate Leakage = 0.00038992 W
                Runtime Dynamic = 1.31745e-06 W

          Instruction Scheduler:
            Area = 1.49901 mm^2
            Peak Dynamic = 3.31117 W
            Subthreshold Leakage = 0.0413754 W
            Subthreshold Leakage with power gating = 0.0222326 W
            Gate Leakage = 0.00244394 W
            Runtime Dynamic = 7.24876e-05 W

              Instruction Window:
                Area = 0.329703 mm^2
                Peak Dynamic = 0.542479 W
                Subthreshold Leakage = 0.006509 W
                Subthreshold Leakage with power gating = 0.00363852 W
                Gate Leakage = 0.000434043 W
                Runtime Dynamic = 1.01899e-05 W

              FP Instruction Window:
                Area = 0.328073 mm^2
                Peak Dynamic = 1.20978 W
                Subthreshold Leakage = 0.017004 W
                Subthreshold Leakage with power gating = 0.00962066 W
                Gate Leakage = 0.00115349 W
                Runtime Dynamic = 2.94848e-05 W

              ROB:
                Area = 0.841232 mm^2
                Peak Dynamic = 1.55892 W
                Subthreshold Leakage = 0.0178624 W
                Subthreshold Leakage with power gating = 0.00897339 W
                Gate Leakage = 0.000856399 W
                Runtime Dynamic = 3.28129e-05 W

          Integer ALUs (Count: 6 ):
            Area = 0.47087 mm^2
            Peak Dynamic = 3.02555e-05 W
            Subthreshold Leakage = 0.40222 W
            Subthreshold Leakage with power gating = 0.150833 W
            Gate Leakage = 0.0265291 W
            Runtime Dynamic = 0.101371 W

          Floating Point Units (FPUs) (Count: 2 ):
            Area = 4.6585 mm^2
            Peak Dynamic = 0 W
            Subthreshold Leakage = 0.994829 W
            Subthreshold Leakage with power gating = 0.373061 W
            Gate Leakage = 0.0656156 W
            Runtime Dynamic = 0.304033 W

          Complex ALUs (Mul/Div) (Count: 1 ):
            Area = 0.235435 mm^2
            Peak Dynamic = 0 W
            Subthreshold Leakage = 0.20111 W
            Subthreshold Leakage with power gating = 0.0754163 W
            Gate Leakage = 0.0132646 W
            Runtime Dynamic = 0.202689 W

          Results Broadcast Bus:
            Area Overhead = 0.0436135 mm^2
            Peak Dynamic = 1.86738e-05 W
            Subthreshold Leakage = 0.0911921 W
            Subthreshold Leakage with power gating = 0.034197 W
            Gate Leakage = 0.00601473 W
            Runtime Dynamic = 5.14552e-05 W

    L2
    Area = 4.53318 mm^2
    Peak Dynamic = 5.0893e-06 W
    Subthreshold Leakage = 0.834142 W
    Subthreshold Leakage with power gating = 0.401066 W
    Gate Leakage = 0.015464 W
    Runtime Dynamic = 1.28839e-06 W

*****************************************************************************************
      L3
      Area = 61.9075 mm^2
      Peak Dynamic = 0.000217821 W
      Subthreshold Leakage = 6.80085 W
      Subthreshold Leakage with power gating = 3.32364 W
      Gate Leakage = 0.0484137 W
      Runtime Dynamic = 0.000178543 W

*****************************************************************************************
      L3
      Area = 61.9075 mm^2
      Peak Dynamic = 4.35642e-05 W
      Subthreshold Leakage = 6.80085 W
      Subthreshold Leakage with power gating = 3.32364 W
      Gate Leakage = 0.0484137 W
      Runtime Dynamic = 2.6215e-05 W

*****************************************************************************************
BUSES
      Area = 3.61971 mm^2
      Peak Dynamic = 0.0015496 W
      Subthreshold Leakage = 0.101262 W
      Subthreshold Leakage with power gating = 0.0379732 W
      Gate Leakage = 0.00971065 W
      Runtime Dynamic = 0.000171925 W

      Bus: 
        Area = 3.61971 mm^2
        Peak Dynamic = 0.0015496 W
        Subthreshold Leakage = 0.101262 W
        Subthreshold Leakage with power gating = 0.0379732 W
        Gate Leakage = 0.00971065 W
        Runtime Dynamic = 0.000171925 W

*****************************************************************************************
